SOL 101
CEND
TITLE = cbeam_pbeam_baseline static analysis
SPC = 100
DISP = ALL
STRESS = ALL
SUBCASE 1
  SUBTITLE = static_fx
  LOAD = 10
SUBCASE 2
  SUBTITLE = static_fy
  LOAD = 20
SUBCASE 3
  SUBTITLE = static_fz
  LOAD = 30
SUBCASE 4
  SUBTITLE = static_mx
  LOAD = 40
SUBCASE 5
  SUBTITLE = static_my
  LOAD = 50
SUBCASE 6
  SUBTITLE = static_mz
  LOAD = 60
BEGIN BULK
$PARAMS
PARAM   COUPMASS       1
PARAM       POST       1
$NODES
GRID           1              0.      0.      0.
GRID           2        .0333333      0.      0.
GRID           3        .0666667      0.      0.
GRID           4              .1      0.      0.
GRID           5        .1333333      0.      0.
GRID           6        .1666667      0.      0.
GRID           7              .2      0.      0.
GRID           8        .2333333      0.      0.
GRID           9        .2666667      0.      0.
GRID          10              .3      0.      0.
GRID          11        .3333333      0.      0.
GRID          12        .3666667      0.      0.
GRID          13              .4      0.      0.
GRID          14        .4333333      0.      0.
GRID          15        .4666667      0.      0.
GRID          16              .5      0.      0.
GRID          17        .5333333      0.      0.
GRID          18        .5666667      0.      0.
GRID          19              .6      0.      0.
GRID          20        .6333333      0.      0.
$ ... 11 like lines cut
$ELEMENTS
CBEAM          1       1       1       2      0.      1.      0.
CBEAM          2       2       2       3      0.      1.      0.
CBEAM          3       3       3       4      0.      1.      0.
CBEAM          4       4       4       5      0.      1.      0.
CBEAM          5       5       5       6      0.      1.      0.
CBEAM          6       6       6       7      0.      1.      0.
CBEAM          7       7       7       8      0.      1.      0.
CBEAM          8       8       8       9      0.      1.      0.
CBEAM          9       9       9      10      0.      1.      0.
CBEAM         10      10      10      11      0.      1.      0.
CBEAM         11      11      11      12      0.      1.      0.
CBEAM         12      12      12      13      0.      1.      0.
CBEAM         13      13      13      14      0.      1.      0.
CBEAM         14      14      14      15      0.      1.      0.
CBEAM         15      15      15      16      0.      1.      0.
CBEAM         16      16      16      17      0.      1.      0.
CBEAM         17      17      17      18      0.      1.      0.
CBEAM         18      18      18      19      0.      1.      0.
CBEAM         19      19      19      20      0.      1.      0.
CBEAM         20      20      20      21      0.      1.      0.
$ ... 10 like lines cut
$PROPERTIES
PBEAM          1       1     .013.3333-52.0833-6        7.0213-6
+
              NO      1.     .013.3333-52.0833-6        7.0213-6
        .8333333.8333333
PBEAM          2       1     .013.3333-52.0833-6        7.0213-6
+
              NO      1.     .013.3333-52.0833-6        7.0213-6
        .8333333.8333333
PBEAM          3       1     .013.3333-52.0833-6        7.0213-6
+
              NO      1.     .013.3333-52.0833-6        7.0213-6
        .8333333.8333333
PBEAM          4       1     .013.3333-52.0833-6        7.0213-6
+
              NO      1.     .013.3333-52.0833-6        7.0213-6
        .8333333.8333333
PBEAM          5       1     .013.3333-52.0833-6        7.0213-6
+
              NO      1.     .013.3333-52.0833-6        7.0213-6
        .8333333.8333333
PBEAM          6       1     .013.3333-52.0833-6        7.0213-6
+
              NO      1.     .013.3333-52.0833-6        7.0213-6
        .8333333.8333333
PBEAM          7       1     .013.3333-52.0833-6        7.0213-6
+
              NO      1.     .013.3333-52.0833-6        7.0213-6
        .8333333.8333333
PBEAM          8       1     .013.3333-52.0833-6        7.0213-6
+
              NO      1.     .013.3333-52.0833-6        7.0213-6
        .8333333.8333333
PBEAM          9       1     .013.3333-52.0833-6        7.0213-6
+
              NO      1.     .013.3333-52.0833-6        7.0213-6
        .8333333.8333333
PBEAM         10       1     .013.3333-52.0833-6        7.0213-6
+
              NO      1.     .013.3333-52.0833-6        7.0213-6
        .8333333.8333333
PBEAM         11       1     .013.3333-52.0833-6        7.0213-6
+
              NO      1.     .013.3333-52.0833-6        7.0213-6
        .8333333.8333333
PBEAM         12       1     .013.3333-52.0833-6        7.0213-6
+
              NO      1.     .013.3333-52.0833-6        7.0213-6
        .8333333.8333333
PBEAM         13       1     .013.3333-52.0833-6        7.0213-6
+
              NO      1.     .013.3333-52.0833-6        7.0213-6
        .8333333.8333333
PBEAM         14       1     .013.3333-52.0833-6        7.0213-6
+
              NO      1.     .013.3333-52.0833-6        7.0213-6
        .8333333.8333333
PBEAM         15       1     .013.3333-52.0833-6        7.0213-6
+
              NO      1.     .013.3333-52.0833-6        7.0213-6
        .8333333.8333333
PBEAM         16       1     .013.3333-52.0833-6        7.0213-6
+
              NO      1.     .013.3333-52.0833-6        7.0213-6
        .8333333.8333333
PBEAM         17       1     .013.3333-52.0833-6        7.0213-6
+
              NO      1.     .013.3333-52.0833-6        7.0213-6
        .8333333.8333333
PBEAM         18       1     .013.3333-52.0833-6        7.0213-6
+
              NO      1.     .013.3333-52.0833-6        7.0213-6
        .8333333.8333333
PBEAM         19       1     .013.3333-52.0833-6        7.0213-6
+
              NO      1.     .013.3333-52.0833-6        7.0213-6
        .8333333.8333333
PBEAM         20       1     .013.3333-52.0833-6        7.0213-6
+
              NO      1.     .013.3333-52.0833-6        7.0213-6
        .8333333.8333333
PBEAM         21       1     .013.3333-52.0833-6        7.0213-6
+
              NO      1.     .013.3333-52.0833-6        7.0213-6
        .8333333.8333333
PBEAM         22       1     .013.3333-52.0833-6        7.0213-6
+
              NO      1.     .013.3333-52.0833-6        7.0213-6
        .8333333.8333333
PBEAM         23       1     .013.3333-52.0833-6        7.0213-6
+
              NO      1.     .013.3333-52.0833-6        7.0213-6
        .8333333.8333333
PBEAM         24       1     .013.3333-52.0833-6        7.0213-6
+
              NO      1.     .013.3333-52.0833-6        7.0213-6
        .8333333.8333333
PBEAM         25       1     .013.3333-52.0833-6        7.0213-6
+
              NO      1.     .013.3333-52.0833-6        7.0213-6
        .8333333.8333333
PBEAM         26       1     .013.3333-52.0833-6        7.0213-6
+
              NO      1.     .013.3333-52.0833-6        7.0213-6
        .8333333.8333333
PBEAM         27       1     .013.3333-52.0833-6        7.0213-6
+
              NO      1.     .013.3333-52.0833-6        7.0213-6
        .8333333.8333333
PBEAM         28       1     .013.3333-52.0833-6        7.0213-6
+
              NO      1.     .013.3333-52.0833-6        7.0213-6
        .8333333.8333333
PBEAM         29       1     .013.3333-52.0833-6        7.0213-6
+
              NO      1.     .013.3333-52.0833-6        7.0213-6
        .8333333.8333333
PBEAM         30       1     .013.3333-52.0833-6        7.0213-6
+
              NO      1.     .013.3333-52.0833-6        7.0213-6
        .8333333.8333333
$MATERIALS
$Aluminium 7075
MAT1           1 7.17+10             .33   2810.
$LOADS
FORCE         10      31          10000.      1.      0.      0.
FORCE         20      31          10000.      0.      1.      0.
FORCE         30      31          10000.      0.      0.      1.
MOMENT        40      31           1000.      1.      0.      0.
MOMENT        50      31           1000.      0.      1.      0.
MOMENT        60      31           1000.      0.      0.      1.
$SPCs
SPC1         100  123456       1
ENDDATA
