SOL 101
CEND
TITLE = cbeam_pbeaml_tube_taper_rotation_nsm static analysis
SPC = 100
DISP = ALL
STRESS = ALL
SUBCASE 1
  SUBTITLE = static_fx
  LOAD = 10
SUBCASE 2
  SUBTITLE = static_fy
  LOAD = 20
SUBCASE 3
  SUBTITLE = static_fz
  LOAD = 30
SUBCASE 4
  SUBTITLE = static_mx
  LOAD = 40
SUBCASE 5
  SUBTITLE = static_my
  LOAD = 50
SUBCASE 6
  SUBTITLE = static_mz
  LOAD = 60
BEGIN BULK
$PARAMS
PARAM   COUPMASS       1
PARAM       POST       1
$NODES
GRID           1              0.      0.      0.
GRID           2        .0333333      0.      0.
GRID           3        .0666667      0.      0.
GRID           4              .1      0.      0.
GRID           5        .1333333      0.      0.
GRID           6        .1666667      0.      0.
GRID           7              .2      0.      0.
GRID           8        .2333333      0.      0.
GRID           9        .2666667      0.      0.
GRID          10              .3      0.      0.
GRID          11        .3333333      0.      0.
GRID          12        .3666667      0.      0.
GRID          13              .4      0.      0.
GRID          14        .4333333      0.      0.
GRID          15        .4666667      0.      0.
GRID          16              .5      0.      0.
GRID          17        .5333333      0.      0.
GRID          18        .5666667      0.      0.
GRID          19              .6      0.      0.
GRID          20        .6333333      0.      0.
$ ... 11 like lines cut
$ELEMENTS
CBEAM          1       1       1       2      0..8660254      .5
CBEAM          2       2       2       3      0..8660254      .5
CBEAM          3       3       3       4      0..8660254      .5
CBEAM          4       4       4       5      0..8660254      .5
CBEAM          5       5       5       6      0..8660254      .5
CBEAM          6       6       6       7      0..8660254      .5
CBEAM          7       7       7       8      0..8660254      .5
CBEAM          8       8       8       9      0..8660254      .5
CBEAM          9       9       9      10      0..8660254      .5
CBEAM         10      10      10      11      0..8660254      .5
CBEAM         11      11      11      12      0..8660254      .5
CBEAM         12      12      12      13      0..8660254      .5
CBEAM         13      13      13      14      0..8660254      .5
CBEAM         14      14      14      15      0..8660254      .5
CBEAM         15      15      15      16      0..8660254      .5
CBEAM         16      16      16      17      0..8660254      .5
CBEAM         17      17      17      18      0..8660254      .5
CBEAM         18      18      18      19      0..8660254      .5
CBEAM         19      19      19      20      0..8660254      .5
CBEAM         20      20      20      21      0..8660254      .5
$ ... 10 like lines cut
$PROPERTIES
PBEAML         1       1            TUBE
              .1     .01    28.1     YES      1..0983333.0098333    28.1
PBEAML         2       1            TUBE
        .0983333.0098333    28.1     YES      1..0966667.0096667    28.1
PBEAML         3       1            TUBE
        .0966667.0096667    28.1     YES      1.    .095   .0095    28.1
PBEAML         4       1            TUBE
            .095   .0095    28.1     YES      1..0933333.0093333    28.1
PBEAML         5       1            TUBE
        .0933333.0093333    28.1     YES      1..0916667.0091667    28.1
PBEAML         6       1            TUBE
        .0916667.0091667    28.1     YES      1.     .09    .009    28.1
PBEAML         7       1            TUBE
             .09    .009    28.1     YES      1..0883333.0088333    28.1
PBEAML         8       1            TUBE
        .0883333.0088333    28.1     YES      1..0866667.0086667    28.1
PBEAML         9       1            TUBE
        .0866667.0086667    28.1     YES      1.    .085   .0085    28.1
PBEAML        10       1            TUBE
            .085   .0085    28.1     YES      1..0833333.0083333    28.1
PBEAML        11       1            TUBE
        .0833333.0083333    28.1     YES      1..0816667.0081667    28.1
PBEAML        12       1            TUBE
        .0816667.0081667    28.1     YES      1.     .08    .008    28.1
PBEAML        13       1            TUBE
             .08    .008    28.1     YES      1..0783333.0078333    28.1
PBEAML        14       1            TUBE
        .0783333.0078333    28.1     YES      1..0766667.0076667    28.1
PBEAML        15       1            TUBE
        .0766667.0076667    28.1     YES      1.    .075   .0075    28.1
PBEAML        16       1            TUBE
            .075   .0075    28.1     YES      1..0733333.0073333    28.1
PBEAML        17       1            TUBE
        .0733333.0073333    28.1     YES      1..0716667.0071667    28.1
PBEAML        18       1            TUBE
        .0716667.0071667    28.1     YES      1.     .07    .007    28.1
PBEAML        19       1            TUBE
             .07    .007    28.1     YES      1..0683333.0068333    28.1
PBEAML        20       1            TUBE
        .0683333.0068333    28.1     YES      1..0666667.0066667    28.1
$ ... 20 like lines cut
$MATERIALS
$Aluminium 7075
MAT1           1 7.17+10             .33   2810.
$LOADS
FORCE         10      31          10000.      1.      0.      0.
FORCE         20      31          10000.      0.      1.      0.
FORCE         30      31          10000.      0.      0.      1.
MOMENT        40      31           1000.      1.      0.      0.
MOMENT        50      31           1000.      0.      1.      0.
MOMENT        60      31           1000.      0.      0.      1.
$SPCs
SPC1         100  123456       1
ENDDATA
