$pyNastran: version=msc
$pyNastran: punch=False
$pyNastran: encoding=utf-8
$EXECUTIVE CONTROL DECK
SOL 103
CEND
$CASE CONTROL DECK
SUBCASE 1
    DISPLACEMENT(PLOT) = ALL
    LABEL = Modal Analysis
    METHOD = 42
    SPC = 5001
BEGIN BULK
$PARAMS
PARAM       POST       1
$NODES
GRID        1001              0.      0.      0.
GRID        1002        .0333333      0.      0.
GRID        1003        .0666667      0.      0.
GRID        1004              .1      0.      0.
GRID        1005        .1333333      0.      0.
GRID        1006        .1666667      0.      0.
GRID        1007              .2      0.      0.
GRID        1008        .2333333      0.      0.
GRID        1009        .2666667      0.      0.
GRID        1010              .3      0.      0.
GRID        1011        .3333333      0.      0.
GRID        1012        .3666667      0.      0.
GRID        1013              .4      0.      0.
GRID        1014        .4333333      0.      0.
GRID        1015        .4666667      0.      0.
GRID        1016              .5      0.      0.
GRID        1017        .5333333      0.      0.
GRID        1018        .5666667      0.      0.
GRID        1019              .6      0.      0.
GRID        1020        .6333333      0.      0.
$ ... 11 like lines cut
$ELEMENTS
$Elements and Element Properties for region : Element 1
CBEAM       4001    3001    1001    1002      0.      0.      1.
$Elements and Element Properties for region : Element 2
CBEAM       4002    3002    1002    1003      0.      0.      1.
$Elements and Element Properties for region : Element 3
CBEAM       4003    3003    1003    1004      0.      0.      1.
$Elements and Element Properties for region : Element 4
CBEAM       4004    3004    1004    1005      0.      0.      1.
$Elements and Element Properties for region : Element 5
CBEAM       4005    3005    1005    1006      0.      0.      1.
$Elements and Element Properties for region : Element 6
CBEAM       4006    3006    1006    1007      0.      0.      1.
$Elements and Element Properties for region : Element 7
CBEAM       4007    3007    1007    1008      0.      0.      1.
$Elements and Element Properties for region : Element 8
CBEAM       4008    3008    1008    1009      0.      0.      1.
$Elements and Element Properties for region : Element 9
CBEAM       4009    3009    1009    1010      0.      0.      1.
$Elements and Element Properties for region : Element 10
CBEAM       4010    3010    1010    1011      0.      0.      1.
$Elements and Element Properties for region : Element 11
CBEAM       4011    3011    1011    1012      0.      0.      1.
$Elements and Element Properties for region : Element 12
CBEAM       4012    3012    1012    1013      0.      0.      1.
$Elements and Element Properties for region : Element 13
CBEAM       4013    3013    1013    1014      0.      0.      1.
$Elements and Element Properties for region : Element 14
CBEAM       4014    3014    1014    1015      0.      0.      1.
$Elements and Element Properties for region : Element 15
CBEAM       4015    3015    1015    1016      0.      0.      1.
$Elements and Element Properties for region : Element 16
CBEAM       4016    3016    1016    1017      0.      0.      1.
$Elements and Element Properties for region : Element 17
CBEAM       4017    3017    1017    1018      0.      0.      1.
$Elements and Element Properties for region : Element 18
CBEAM       4018    3018    1018    1019      0.      0.      1.
$Elements and Element Properties for region : Element 19
CBEAM       4019    3019    1019    1020      0.      0.      1.
$Elements and Element Properties for region : Element 20
CBEAM       4020    3020    1020    1021      0.      0.      1.
$ ... 20 like lines cut
$PROPERTIES
PBEAM       3001    2001     .012.0833-63.3333-5        7.0213-6
+
              NO      1..00963671.9281-6 3.106-5        6.5023-6
PBEAM       3002    2001.00963671.9281-6 3.106-5        6.5023-6
+
              NO      1.  .009281.7818-62.8905-5        6.0126-6
PBEAM       3003    2001  .009281.7818-62.8905-5        6.0126-6
+
              NO      1.  .008931.6439-62.6864-5         5.551-6
PBEAM       3004    2001  .008931.6439-62.6864-5         5.551-6
+
              NO      1..00858671.5141-62.4933-5        5.1165-6
PBEAM       3005    2001.00858671.5141-62.4933-5        5.1165-6
+
              NO      1.  .008251.3922-62.3108-5        4.7079-6
PBEAM       3006    2001  .008251.3922-62.3108-5        4.7079-6
+
              NO      1.  .007921.2778-62.1384-5        4.3242-6
PBEAM       3007    2001  .007921.2778-62.1384-5        4.3242-6
+
              NO      1..00759671.1705-61.9758-5        3.9643-6
PBEAM       3008    2001.00759671.1705-61.9758-5        3.9643-6
+
              NO      1.  .007281.0702-61.8227-5        3.6274-6
PBEAM       3009    2001  .007281.0702-61.8227-5        3.6274-6
+
              NO      1.  .006979.7638-71.6786-5        3.3123-6
PBEAM       3010    2001  .006979.7638-71.6786-5        3.3123-6
+
              NO      1..00666678.8889-71.5432-5        3.0181-6
PBEAM       3011    2001.00666678.8889-71.5432-5        3.0181-6
+
              NO      1.  .00637 8.074-71.4161-5        2.7439-6
PBEAM       3012    2001  .00637 8.074-71.4161-5        2.7439-6
+
              NO      1.  .006087.3163-71.2971-5        2.4887-6
PBEAM       3013    2001  .006087.3163-71.2971-5        2.4887-6
+
              NO      1..0057967 6.613-71.1856-5        2.2517-6
PBEAM       3014    2001.0057967 6.613-71.1856-5        2.2517-6
+
              NO      1.  .005525.9616-71.0815-5         2.032-6
PBEAM       3015    2001  .005525.9616-71.0815-5         2.032-6
+
              NO      1.  .005255.3594-79.8438-6        1.8287-6
PBEAM       3016    2001  .005255.3594-79.8438-6        1.8287-6
+
              NO      1..00498674.8038-78.9391-6         1.641-6
PBEAM       3017    2001.00498674.8038-78.9391-6         1.641-6
+
              NO      1.  .004734.2925-78.0979-6         1.468-6
PBEAM       3018    2001  .004734.2925-78.0979-6         1.468-6
+
              NO      1.  .004483.8229-77.3173-6         1.309-6
PBEAM       3019    2001  .004483.8229-77.3173-6         1.309-6
+
              NO      1..00423673.3929-76.5943-6        1.1632-6
PBEAM       3020    2001.00423673.3929-76.5943-6        1.1632-6
+
              NO      1.    .004.00000035.9259-6        1.0299-6
PBEAM       3021    2001    .004.00000035.9259-6        1.0299-6
+
              NO      1.  .003772.6421-75.3094-6        9.0836-7
PBEAM       3022    2001  .003772.6421-75.3094-6        9.0836-7
+
              NO      1..00354672.3172-7 4.742-6        7.9781-7
PBEAM       3023    2001.00354672.3172-7 4.742-6        7.9781-7
+
              NO      1.  .00333 2.023-74.2211-6        6.9761-7
PBEAM       3024    2001  .00333 2.023-74.2211-6        6.9761-7
+
              NO      1.  .003121.7576-7 3.744-6        6.0709-7
PBEAM       3025    2001  .003121.7576-7 3.744-6        6.0709-7
+
              NO      1..00291671.5191-73.3083-6        5.2562-7
PBEAM       3026    2001.00291671.5191-73.3083-6        5.2562-7
+
              NO      1.  .002721.3056-72.9114-6        4.5258-7
PBEAM       3027    2001  .002721.3056-72.9114-6        4.5258-7
+
              NO      1.  .002531.1153-72.5511-6        3.8737-7
PBEAM       3028    2001  .002531.1153-72.5511-6        3.8737-7
+
              NO      1..00234679.4649-8 2.225-6        3.2941-7
PBEAM       3029    2001.00234679.4649-8 2.225-6        3.2941-7
+
              NO      1.  .002177.9748-81.9309-6        2.7815-7
PBEAM       3030    2001  .002177.9748-81.9309-6        2.7815-7
+
              NO      1.    .0026.6667-81.6667-6        2.3307-7
$MATERIALS
$Aluminium 7075
MAT1        2001 7.17+10             .33   2810.
$LOADS
GRAV        6001       0    9.81      0.      0.     -1.       0
$DYNAMIC
EIGRL         42                      10
$SPCs
SPC1        5001  123456    1001
ENDDATA
