INIT MASTER(S)
NASTRAN SYSTEM(442)=-1,SYSTEM(319)=1
ID FEMAP,FEMAP
SOL SESTATIC
CEND
  TITLE = Simcenter Nastran Static Analysis Set
  ECHO = NONE
  DISPLACEMENT(PLOT) = ALL
  SPCFORCE(PLOT) = ALL
  OLOAD(PLOT) = ALL
  FORCE(PLOT,CORNER) = ALL
  STRESS(PLOT,CORNER) = ALL
  SPC = 1
  LOAD = 1
BEGIN BULK
$ ***************************************************************************
$   Written by : Femap
$   Version    : 2021.1.0
$   Translator : Simcenter Nastran
$   From Model : 
$   Date       : Sun Jun 12 16:48:14 2022
$   Output To  : C:\Users\trbrooks\AppData\Local\Temp\
$ ***************************************************************************
$
PARAM,PRGPST,YES
PARAM,POST,-1
PARAM,OGEOM,NO
PARAM,AUTOSPC,YES
PARAM,K6ROT,100.
PARAM,GRDPNT,0
CORD2C         1       0      0.      0.      0.      0.      0.      1.+FEMAPC1
+FEMAPC1      1.      0.      1.        
CORD2S         2       0      0.      0.      0.      0.      0.      1.+FEMAPC2
+FEMAPC2      1.      0.      1.
$ Femap Load Set 1 : centrifugal
RFORCE         1       0       0    100.      0.      0.      1.
$ Femap Constraint Set 1 : Clamp
SPC1           1  123456       1
SPC1           1  123456      41
SPC1           1  123456      42
SPC1           1  123456      43
SPC1           1  123456      44
SPC1           1  123456      45
SPC1           1  123456      46
SPC1           1  123456      47
SPC1           1  123456      48
SPC1           1  123456      49
SPC1           1  123456      50
SPC1           1  123456      51
SPC1           1  123456      52
SPC1           1  123456      53
SPC1           1  123456      54
SPC1           1  123456      55
SPC1           1  123456      56
SPC1           1  123456      57
SPC1           1  123456      58
SPC1           1  123456      59
$ ... 106 like lines cut
$ Femap Property 1 : Plate
PSHELL         1       1    .001       1               1              0.
$ Femap Material 1 : Aluminum
MAT1           1   7.+10              .3   2700.      0.      0.        +       
+          2.7+8                
GRID           1       0      1.      0.      0.       0
GRID           2       0     .95      0.      0.       0
GRID           3       0      .9      0.      0.       0
GRID           4       0     .85      0.      0.       0
GRID           5       0      .8      0.      0.       0
GRID           6       0     .75      0.      0.       0
GRID           7       0      .7      0.      0.       0
GRID           8       0     .65      0.      0.       0
GRID           9       0      .6      0.      0.       0
GRID          10       0     .55      0.      0.       0
GRID          11       0      .5      0.      0.       0
GRID          12       0     .45      0.      0.       0
GRID          13       0      .4      0.      0.       0
GRID          14       0     .35      0.      0.       0
GRID          15       0      .3      0.      0.       0
GRID          16       0     .25      0.      0.       0
GRID          17       0      .2      0.      0.       0
GRID          18       0     .15      0.      0.       0
GRID          19       0      .1      0.      0.       0
GRID          20       0     .05      0.      0.       0
$ ... 1287 like lines cut
CQUAD4         1       1     389     387     388     390                
CQUAD4         2       1     389     390     381     382                
CQUAD4         3       1     388     386     381     390                
CQUAD4         4       1     389     382      56      57                
CQUAD4         5       1      57      58     387     389                
CQUAD4         6       1     391     387      58      59                
CQUAD4         7       1      59      60     383     391                
CQUAD4         8       1     388     387     391     392                
CQUAD4         9       1     388     392     384     386                
CQUAD4        10       1     391     383     384     392                
CQUAD4        11       1     385     379     380     393                
CQUAD4        12       1     385     393     386     384                
CQUAD4        13       1     380     381     386     393                
CQUAD4        14       1     383     354     355     384                
CQUAD4        15       1     356     357     379     385                
CQUAD4        16       1     385     384     355     356                
CQUAD4        17       1     394     383      60      61                
CQUAD4        18       1     353     354     383     394                
CQUAD4        19       1     394      61      62     353                
CQUAD4        20       1     381     380     375     376                
CTRIA3        21       1     376     377     381                        
CQUAD4        22       1     377     378     382     381                
CQUAD4        23       1     378      55      56     382                
CQUAD4        24       1     380     379     374     375                
CQUAD4        25       1     379     357     358     374                
CQUAD4        26       1     373      53      54     395                
CQUAD4        27       1     373     395     378     372                
CQUAD4        28       1      54      55     378     395                
CQUAD4        29       1     378     377     371     372                
CQUAD4        30       1     377     376     370     371                
CQUAD4        31       1     374     358     359     368                
CQUAD4        32       1     368     369     375     374                
CQUAD4        33       1     369     370     376     375                
CQUAD4        34       1     368     359     360     361                
CQUAD4        35       1     361     362     369     368                
CQUAD4        36       1     362     363     370     369                
CQUAD4        37       1     363     364     371     370                
CQUAD4        38       1     367      51      52     396                
CQUAD4        39       1     367     396     373     366                
CQUAD4        40       1      52      53     373     396                
CQUAD4        41       1     373     372     365     366                
$ ... 23 like lines cut
CTRIA3        65       1     351     331     332                        
CQUAD4        66       1     351     350     330     331                
CQUAD4        67       1     333      48      49     352                
CQUAD4        68       1     350     349     329     330                
CQUAD4        69       1     349     348     328     329                
CQUAD4        70       1     348     347     327     328                
CQUAD4        71       1     347     346     326     327                
CQUAD4        72       1     346     345     325     326                
CQUAD4        73       1     345     344     324     325                
CQUAD4        74       1     344     343     323     324                
CQUAD4        75       1     313     314     336     335                
CTRIA3        76       1     335     312     313                        
CQUAD4        77       1     335     334     311     312                
CQUAD4        78       1     314     315     337     336                
CQUAD4        79       1     334      64      65     311                
CQUAD4        80       1     315     316     338     337                
CQUAD4        81       1     316     317     339     338                
CQUAD4        82       1     317     318     340     339                
CQUAD4        83       1     318     319     341     340                
CQUAD4        84       1     319     320     342     341                
CQUAD4        85       1     320     321     343     342                
CQUAD4        86       1     321     322     323     343                
CQUAD4        87       1     310      47      48     333                
CQUAD4        88       1     333     332     309     310                
CQUAD4        89       1     332     331     308     309                
CQUAD4        90       1     331     330     307     308                
CQUAD4        91       1     330     329     306     307                
CQUAD4        92       1     329     328     305     306                
CQUAD4        93       1     328     327     304     305                
CQUAD4        94       1     327     326     303     304                
CQUAD4        95       1     326     325     302     303                
CQUAD4        96       1     325     324     301     302                
$ ... 43 like lines cut
CTRIA3       140       1     238     239     281                        
CQUAD4       141       1     239     240     282     281                
CQUAD4       142       1     280     279     236     237                
CQUAD4       143       1     240     241     283     282                
CQUAD4       144       1     279     278     235     236                
CQUAD4       145       1     241     242     284     283                
CQUAD4       146       1     242     243     285     284                
CQUAD4       147       1     278     277     234     235                
CQUAD4       148       1     243      45      46     285                
CQUAD4       149       1     277     276     233     234                
CQUAD4       150       1     276     275     232     233                
CQUAD4       151       1     275     274     231     232                
CQUAD4       152       1     274     273     230     231                
CQUAD4       153       1     273     272     229     230                
CQUAD4       154       1     249     250     264     263                
CTRIA3       155       1     263     248     249                        
CQUAD4       156       1     263     262     247     248                
CQUAD4       157       1     250     251     265     264                
CQUAD4       158       1     262     261     246     247                
CQUAD4       159       1     251     252     266     265                
CQUAD4       160       1     261     260     245     246                
CQUAD4       161       1     252     253     267     266                
CQUAD4       162       1     260     259     244     245                
CQUAD4       163       1     253     254     268     267                
CQUAD4       164       1     259      67      68     244                
CQUAD4       165       1     254     255     269     268                
CQUAD4       166       1     255     256     270     269                
CQUAD4       167       1     256     257     271     270                
CQUAD4       168       1     257     258     272     271                
CQUAD4       169       1     258     228     229     272                
CQUAD4       170       1     244      68      69     195                
CQUAD4       171       1     195     196     245     244                
CQUAD4       172       1     196     197     246     245                
CQUAD4       173       1     197     198     247     246                
CQUAD4       174       1     198     199     248     247                
CQUAD4       175       1     199     200     249     248                
$ ... 119 like lines cut
CTRIA3       295       1      72      73     104                        
CQUAD4       296       1     104     105     124     123                
CQUAD4       297       1     105     106     125     124                
CQUAD4       298       1     106     107     126     125                
CQUAD4       299       1     107     108     127     126                
CQUAD4       300       1     108     109     128     127                
CQUAD4       301       1     109     110     129     128                
CQUAD4       302       1     110     111     130     129                
CQUAD4       303       1     111     112     131     130                
CQUAD4       304       1     112     113     132     131                
CQUAD4       305       1     113     114     133     132                
CQUAD4       306       1     114     115     134     133                
CQUAD4       307       1     115     116     135     134                
CQUAD4       308       1     116     117     136     135                
CQUAD4       309       1     117     118     137     136                
CQUAD4       310       1     118     119     138     137                
CQUAD4       311       1     119     120     139     138                
CQUAD4       312       1     120     121     140     139                
CQUAD4       313       1     121     122     141     140                
CQUAD4       314       1     122      21      22     141                
CQUAD4       315       1     635     659     660     634                
$ ... 19 like lines cut
CTRIA3       335       1     656     651     652                        
CQUAD4       336       1     656     655     650     651                
CQUAD4       337       1     655      89      90     650                
CQUAD4       338       1     653     654     658     657                
CQUAD4       339       1     654     631     632     658                
CQUAD4       340       1      91      92     644     671                
CQUAD4       341       1      91     671     650      90                
CQUAD4       342       1     644     645     650     671                
CQUAD4       343       1     645     646     651     650                
CQUAD4       344       1     646     647     652     651                
CQUAD4       345       1     649     630     631     654                
CQUAD4       346       1     654     653     648     649                
CQUAD4       347       1     653     652     647     648                
CQUAD4       348       1      93      94     637     672                
CQUAD4       349       1      93     672     644      92                
CQUAD4       350       1     637     638     644     672                
CQUAD4       351       1     638     639     645     644                
CQUAD4       352       1     639     640     646     645                
CQUAD4       353       1     643     629     630     649                
CQUAD4       354       1     649     648     642     643                
CQUAD4       355       1     648     647     641     642                
$ ... 23 like lines cut
CTRIA3       379       1     600     601     621                        
CQUAD4       380       1     601     602     622     621                
CQUAD4       381       1     620      96      97     599                
CQUAD4       382       1     602     603     623     622                
CQUAD4       383       1     603     604     624     623                
CQUAD4       384       1     604     605     625     624                
CQUAD4       385       1     605     606     626     625                
CQUAD4       386       1     606     607     627     626                
CQUAD4       387       1     607     608     628     627                
CQUAD4       388       1     608     609     610     628                
CQUAD4       389       1     618     617     595     596                
CTRIA3       390       1     596     597     618                        
CQUAD4       391       1     597     598     619     618                
CQUAD4       392       1     617     616     594     595                
CQUAD4       393       1     598      80      81     619                
CQUAD4       394       1     616     615     593     594                
CQUAD4       395       1     615     614     592     593                
CQUAD4       396       1     614     613     591     592                
CQUAD4       397       1     613     612     590     591                
CQUAD4       398       1     612     611     589     590                
CQUAD4       399       1     611     610     588     589                
CQUAD4       400       1     610     609     587     588                
CQUAD4       401       1     599      97      98     575                
CQUAD4       402       1     575     576     600     599                
CQUAD4       403       1     576     577     601     600                
CQUAD4       404       1     577     578     602     601                
CQUAD4       405       1     578     579     603     602                
CQUAD4       406       1     579     580     604     603                
CQUAD4       407       1     580     581     605     604                
CQUAD4       408       1     581     582     606     605                
CQUAD4       409       1     582     583     607     606                
CQUAD4       410       1     583     584     608     607                
$ ... 43 like lines cut
CTRIA3       454       1     553     508     509                        
CQUAD4       455       1     553     552     507     508                
CQUAD4       456       1     510     511     555     554                
CQUAD4       457       1     552     551     506     507                
CQUAD4       458       1     511     512     556     555                
CQUAD4       459       1     551     550     505     506                
CQUAD4       460       1     550     549     504     505                
CQUAD4       461       1     512     513     557     556                
CQUAD4       462       1     549      99     100     504                
CQUAD4       463       1     513     514     558     557                
CQUAD4       464       1     514     515     559     558                
CQUAD4       465       1     515     516     560     559                
CQUAD4       466       1     516     517     561     560                
CQUAD4       467       1     517     518     535     561                
CQUAD4       468       1     544     543     528     529                
CTRIA3       469       1     529     530     544                        
CQUAD4       470       1     530     531     545     544                
CQUAD4       471       1     543     542     527     528                
CQUAD4       472       1     531     532     546     545                
CQUAD4       473       1     542     541     526     527                
CQUAD4       474       1     532     533     547     546                
CQUAD4       475       1     541     540     525     526                
CQUAD4       476       1     533     534     548     547                
CQUAD4       477       1     540     539     524     525                
CQUAD4       478       1     534      77      78     548                
CQUAD4       479       1     539     538     523     524                
CQUAD4       480       1     538     537     522     523                
CQUAD4       481       1     537     536     521     522                
CQUAD4       482       1     536     535     520     521                
CQUAD4       483       1     535     518     519     520                
CQUAD4       484       1     487      76      77     534                
CQUAD4       485       1     534     533     486     487                
CQUAD4       486       1     533     532     485     486                
CQUAD4       487       1     532     531     484     485                
CQUAD4       488       1     531     530     483     484                
CQUAD4       489       1     530     529     482     483                
$ ... 158 like lines cut
CTRIA3       648       1    1009    1010    1014                        
CQUAD4       649       1    1010    1011    1015    1014                
CQUAD4       650       1    1011     688     689    1015                
CQUAD4       651       1    1013    1012    1007    1008                
CQUAD4       652       1    1012     990     991    1007                
CQUAD4       653       1    1006     686     687    1028                
CQUAD4       654       1    1006    1028    1011    1005                
CQUAD4       655       1     687     688    1011    1028                
CQUAD4       656       1    1011    1010    1004    1005                
CQUAD4       657       1    1010    1009    1003    1004                
CQUAD4       658       1    1007     991     992    1001                
CQUAD4       659       1    1001    1002    1008    1007                
CQUAD4       660       1    1002    1003    1009    1008                
CQUAD4       661       1    1001     992     993     994                
CQUAD4       662       1     994     995    1002    1001                
CQUAD4       663       1     995     996    1003    1002                
CQUAD4       664       1     996     997    1004    1003                
CQUAD4       665       1    1000     684     685    1029                
CQUAD4       666       1    1000    1029    1006     999                
CQUAD4       667       1     685     686    1006    1029                
CQUAD4       668       1    1006    1005     998     999                
$ ... 23 like lines cut
CTRIA3       692       1     984     964     965                        
CQUAD4       693       1     984     983     963     964                
CQUAD4       694       1     966     681     682     985                
CQUAD4       695       1     983     982     962     963                
CQUAD4       696       1     982     981     961     962                
CQUAD4       697       1     981     980     960     961                
CQUAD4       698       1     980     979     959     960                
CQUAD4       699       1     979     978     958     959                
CQUAD4       700       1     978     977     957     958                
CQUAD4       701       1     977     976     956     957                
CQUAD4       702       1     946     947     969     968                
CTRIA3       703       1     968     945     946                        
CQUAD4       704       1     968     967     944     945                
CQUAD4       705       1     947     948     970     969                
CQUAD4       706       1     967     697     698     944                
CQUAD4       707       1     948     949     971     970                
CQUAD4       708       1     949     950     972     971                
CQUAD4       709       1     950     951     973     972                
CQUAD4       710       1     951     952     974     973                
CQUAD4       711       1     952     953     975     974                
CQUAD4       712       1     953     954     976     975                
CQUAD4       713       1     954     955     956     976                
CQUAD4       714       1     943     680     681     966                
CQUAD4       715       1     966     965     942     943                
CQUAD4       716       1     965     964     941     942                
CQUAD4       717       1     964     963     940     941                
CQUAD4       718       1     963     962     939     940                
CQUAD4       719       1     962     961     938     939                
CQUAD4       720       1     961     960     937     938                
CQUAD4       721       1     960     959     936     937                
CQUAD4       722       1     959     958     935     936                
CQUAD4       723       1     958     957     934     935                
$ ... 43 like lines cut
CTRIA3       767       1     871     872     914                        
CQUAD4       768       1     872     873     915     914                
CQUAD4       769       1     913     912     869     870                
CQUAD4       770       1     873     874     916     915                
CQUAD4       771       1     912     911     868     869                
CQUAD4       772       1     874     875     917     916                
CQUAD4       773       1     875     876     918     917                
CQUAD4       774       1     911     910     867     868                
CQUAD4       775       1     876     678     679     918                
CQUAD4       776       1     910     909     866     867                
CQUAD4       777       1     909     908     865     866                
CQUAD4       778       1     908     907     864     865                
CQUAD4       779       1     907     906     863     864                
CQUAD4       780       1     906     905     862     863                
CQUAD4       781       1     882     883     897     896                
CTRIA3       782       1     896     881     882                        
CQUAD4       783       1     896     895     880     881                
CQUAD4       784       1     883     884     898     897                
CQUAD4       785       1     895     894     879     880                
CQUAD4       786       1     884     885     899     898                
CQUAD4       787       1     894     893     878     879                
CQUAD4       788       1     885     886     900     899                
CQUAD4       789       1     893     892     877     878                
CQUAD4       790       1     886     887     901     900                
CQUAD4       791       1     892     700     701     877                
CQUAD4       792       1     887     888     902     901                
CQUAD4       793       1     888     889     903     902                
CQUAD4       794       1     889     890     904     903                
CQUAD4       795       1     890     891     905     904                
CQUAD4       796       1     891     861     862     905                
CQUAD4       797       1     877     701     702     828                
CQUAD4       798       1     828     829     878     877                
CQUAD4       799       1     829     830     879     878                
CQUAD4       800       1     830     831     880     879                
CQUAD4       801       1     831     832     881     880                
CQUAD4       802       1     832     833     882     881                
$ ... 119 like lines cut
CTRIA3       922       1     705     706     737                        
CQUAD4       923       1     737     738     757     756                
CQUAD4       924       1     738     739     758     757                
CQUAD4       925       1     739     740     759     758                
CQUAD4       926       1     740     741     760     759                
CQUAD4       927       1     741     742     761     760                
CQUAD4       928       1     742     743     762     761                
CQUAD4       929       1     743     744     763     762                
CQUAD4       930       1     744     745     764     763                
CQUAD4       931       1     745     746     765     764                
CQUAD4       932       1     746     747     766     765                
CQUAD4       933       1     747     748     767     766                
CQUAD4       934       1     748     749     768     767                
CQUAD4       935       1     749     750     769     768                
CQUAD4       936       1     750     751     770     769                
CQUAD4       937       1     751     752     771     770                
CQUAD4       938       1     752     753     772     771                
CQUAD4       939       1     753     754     773     772                
CQUAD4       940       1     754     755     774     773                
CQUAD4       941       1     755      21      20     774                
CQUAD4       942       1    1268    1292    1293    1267                
$ ... 19 like lines cut
CTRIA3       962       1    1289    1284    1285                        
CQUAD4       963       1    1289    1288    1283    1284                
CQUAD4       964       1    1288     722     723    1283                
CQUAD4       965       1    1286    1287    1291    1290                
CQUAD4       966       1    1287    1264    1265    1291                
CQUAD4       967       1     724     725    1277    1304                
CQUAD4       968       1     724    1304    1283     723                
CQUAD4       969       1    1277    1278    1283    1304                
CQUAD4       970       1    1278    1279    1284    1283                
CQUAD4       971       1    1279    1280    1285    1284                
CQUAD4       972       1    1282    1263    1264    1287                
CQUAD4       973       1    1287    1286    1281    1282                
CQUAD4       974       1    1286    1285    1280    1281                
CQUAD4       975       1     726     727    1270    1305                
CQUAD4       976       1     726    1305    1277     725                
CQUAD4       977       1    1270    1271    1277    1305                
CQUAD4       978       1    1271    1272    1278    1277                
CQUAD4       979       1    1272    1273    1279    1278                
CQUAD4       980       1    1276    1262    1263    1282                
CQUAD4       981       1    1282    1281    1275    1276                
CQUAD4       982       1    1281    1280    1274    1275                
$ ... 23 like lines cut
CTRIA3      1006       1    1233    1234    1254                        
CQUAD4      1007       1    1234    1235    1255    1254                
CQUAD4      1008       1    1253     729     730    1232                
CQUAD4      1009       1    1235    1236    1256    1255                
CQUAD4      1010       1    1236    1237    1257    1256                
CQUAD4      1011       1    1237    1238    1258    1257                
CQUAD4      1012       1    1238    1239    1259    1258                
CQUAD4      1013       1    1239    1240    1260    1259                
CQUAD4      1014       1    1240    1241    1261    1260                
CQUAD4      1015       1    1241    1242    1243    1261                
CQUAD4      1016       1    1251    1250    1228    1229                
CTRIA3      1017       1    1229    1230    1251                        
CQUAD4      1018       1    1230    1231    1252    1251                
CQUAD4      1019       1    1250    1249    1227    1228                
CQUAD4      1020       1    1231     713     714    1252                
CQUAD4      1021       1    1249    1248    1226    1227                
CQUAD4      1022       1    1248    1247    1225    1226                
CQUAD4      1023       1    1247    1246    1224    1225                
CQUAD4      1024       1    1246    1245    1223    1224                
CQUAD4      1025       1    1245    1244    1222    1223                
CQUAD4      1026       1    1244    1243    1221    1222                
CQUAD4      1027       1    1243    1242    1220    1221                
CQUAD4      1028       1    1232     730     731    1208                
CQUAD4      1029       1    1208    1209    1233    1232                
CQUAD4      1030       1    1209    1210    1234    1233                
CQUAD4      1031       1    1210    1211    1235    1234                
CQUAD4      1032       1    1211    1212    1236    1235                
CQUAD4      1033       1    1212    1213    1237    1236                
CQUAD4      1034       1    1213    1214    1238    1237                
CQUAD4      1035       1    1214    1215    1239    1238                
CQUAD4      1036       1    1215    1216    1240    1239                
CQUAD4      1037       1    1216    1217    1241    1240                
$ ... 43 like lines cut
CTRIA3      1081       1    1186    1141    1142                        
CQUAD4      1082       1    1186    1185    1140    1141                
CQUAD4      1083       1    1143    1144    1188    1187                
CQUAD4      1084       1    1185    1184    1139    1140                
CQUAD4      1085       1    1144    1145    1189    1188                
CQUAD4      1086       1    1184    1183    1138    1139                
CQUAD4      1087       1    1183    1182    1137    1138                
CQUAD4      1088       1    1145    1146    1190    1189                
CQUAD4      1089       1    1182     732     733    1137                
CQUAD4      1090       1    1146    1147    1191    1190                
CQUAD4      1091       1    1147    1148    1192    1191                
CQUAD4      1092       1    1148    1149    1193    1192                
CQUAD4      1093       1    1149    1150    1194    1193                
CQUAD4      1094       1    1150    1151    1168    1194                
CQUAD4      1095       1    1177    1176    1161    1162                
CTRIA3      1096       1    1162    1163    1177                        
CQUAD4      1097       1    1163    1164    1178    1177                
CQUAD4      1098       1    1176    1175    1160    1161                
CQUAD4      1099       1    1164    1165    1179    1178                
CQUAD4      1100       1    1175    1174    1159    1160                
CQUAD4      1101       1    1165    1166    1180    1179                
CQUAD4      1102       1    1174    1173    1158    1159                
CQUAD4      1103       1    1166    1167    1181    1180                
CQUAD4      1104       1    1173    1172    1157    1158                
CQUAD4      1105       1    1167     710     711    1181                
CQUAD4      1106       1    1172    1171    1156    1157                
CQUAD4      1107       1    1171    1170    1155    1156                
CQUAD4      1108       1    1170    1169    1154    1155                
CQUAD4      1109       1    1169    1168    1153    1154                
CQUAD4      1110       1    1168    1151    1152    1153                
CQUAD4      1111       1    1120     709     710    1167                
CQUAD4      1112       1    1167    1166    1119    1120                
CQUAD4      1113       1    1166    1165    1118    1119                
CQUAD4      1114       1    1165    1164    1117    1118                
CQUAD4      1115       1    1164    1163    1116    1117                
CQUAD4      1116       1    1163    1162    1115    1116                
$ ... 138 like lines cut
ENDDATA 7be8df55
