INIT MASTER(S)
NASTRAN SYSTEM(442)=-1,SYSTEM(319)=1
ID FEMAP,FEMAP
SOL SEBUCKL
CEND
  TITLE = Simcenter Nastran Buckling Analysis Set
  ECHO = NONE
  DISPLACEMENT(PLOT) = ALL
  SPCFORCE(PLOT) = ALL
  STRESS(PLOT,CORNER) = ALL
  SPC = 1
SUBCASE 1
  LOAD = 1
SUBCASE 2
  LABEL = BUCKLING CASE
  METHOD = 1
BEGIN BULK
$ ***************************************************************************
$   Written by : Femap
$   Version    : 2023.1.0
$   Translator : Simcenter Nastran
$   From Model : 
$   Date       : Fri May 19 13:59:11 2023
$   Output To  : C:\Users\trbrooks\AppData\Local\Temp\2\
$ ***************************************************************************
$
PARAM,PRGPST,NO
PARAM,POST,-1
PARAM,OGEOM,NO
PARAM,AUTOSPC,YES
PARAM,GRDPNT,0
EIGRL          1           3000.       1       0                     MAX
CORD2C         1       0      0.      0.      0.      0.      0.      1.+FEMAPC1
+FEMAPC1      1.      0.      1.        
CORD2S         2       0      0.      0.      0.      0.      0.      1.+FEMAPC2
+FEMAPC2      1.      0.      1.        
$ Femap Load Set 1 : Untitled
FORCE          1      71       0      1.      0.  -1000.      0.
FORCE          1      72       0      1.      0.  -2000.      0.
FORCE          1      73       0      1.      0.  -2000.      0.
FORCE          1      74       0      1.      0.  -2000.      0.
FORCE          1      75       0      1.      0.  -2000.      0.
FORCE          1      76       0      1.      0.  -2000.      0.
FORCE          1      77       0      1.      0.  -2000.      0.
FORCE          1      78       0      1.      0.  -2000.      0.
FORCE          1      79       0      1.      0.  -2000.      0.
FORCE          1      80       0      1.      0.  -2000.      0.
FORCE          1      81       0      1.      0.  -2000.      0.
FORCE          1      82       0      1.      0.  -2000.      0.
FORCE          1      83       0      1.      0.  -2000.      0.
FORCE          1      84       0      1.      0.  -2000.      0.
FORCE          1      85       0      1.      0.  -2000.      0.
FORCE          1      86       0      1.      0.  -2000.      0.
FORCE          1      87       0      1.      0.  -2000.      0.
FORCE          1      88       0      1.      0.  -2000.      0.
FORCE          1      89       0      1.      0.  -2000.      0.
FORCE          1      90       0      1.      0.  -2000.      0.
$ ... 62 like lines cut
$ Femap Constraint Set 1 : Untitled
SPC1           1  123456       1
SPC1           1     236       2
SPC1           1     236       3
SPC1           1     236       4
SPC1           1     236       5
SPC1           1     236       6
SPC1           1     236       7
SPC1           1     236       8
SPC1           1     236       9
SPC1           1     236      10
SPC1           1     236      11
SPC1           1     236      12
SPC1           1     236      13
SPC1           1     236      14
SPC1           1     236      15
SPC1           1     236      16
SPC1           1     236      17
SPC1           1     236      18
SPC1           1     236      19
SPC1           1     236      20
$ ... 120 like lines cut
$ Femap Property 1 : PLATE Property
PSHELL         1       1     .02       1               1              0.
$ Femap Material 1 : ISOTROPIC Material
MAT1           1 2.05+11              .3      0.      0.      0.        
GRID           1       0      0.      0.      0.       0
GRID           2       0      .1      0.      0.       0
GRID           3       0      .2      0.      0.       0
GRID           4       0      .3      0.      0.       0
GRID           5       0      .4      0.      0.       0
GRID           6       0      .5      0.      0.       0
GRID           7       0      .6      0.      0.       0
GRID           8       0      .7      0.      0.       0
GRID           9       0      .8      0.      0.       0
GRID          10       0      .9      0.      0.       0
GRID          11       0      1.      0.      0.       0
GRID          12       0     1.1      0.      0.       0
GRID          13       0     1.2      0.      0.       0
GRID          14       0     1.3      0.      0.       0
GRID          15       0     1.4      0.      0.       0
GRID          16       0     1.5      0.      0.       0
GRID          17       0     1.6      0.      0.       0
GRID          18       0     1.7      0.      0.       0
GRID          19       0     1.8      0.      0.       0
GRID          20       0     1.9      0.      0.       0
$ ... 1251 like lines cut
CQUAD4         1       1       1       2     141     140                
CQUAD4         2       1       2       3     142     141                
CQUAD4         3       1       3       4     143     142                
CQUAD4         4       1       4       5     144     143                
CQUAD4         5       1       5       6     145     144                
CQUAD4         6       1       6       7     146     145                
CQUAD4         7       1       7       8     147     146                
CQUAD4         8       1       8       9     148     147                
CQUAD4         9       1       9      10     149     148                
CQUAD4        10       1      10      11     150     149                
CQUAD4        11       1      11      12     151     150                
CQUAD4        12       1      12      13     152     151                
CQUAD4        13       1      13      14     153     152                
CQUAD4        14       1      14      15     154     153                
CQUAD4        15       1      15      16     155     154                
CQUAD4        16       1      16      17     156     155                
CQUAD4        17       1      17      18     157     156                
CQUAD4        18       1      18      19     158     157                
CQUAD4        19       1      19      20     159     158                
CQUAD4        20       1      20      21     160     159                
$ ... 1180 like lines cut
ENDDATA 2d9c2e3b
