NASTRAN BARMASS=1
$EXECUTIVE CONTROL DECK
SOL 101
CEND
$CASE CONTROL DECK
DISPLACEMENT = ALL
SPC = 100
STRESS = ALL
TITLE = cbar_pbarl_bar_baseline static analysis
SUBCASE 1
    LOAD = 10
    SUBTITLE = static_fx
SUBCASE 2
    LOAD = 20
    SUBTITLE = static_fy
SUBCASE 3
    LOAD = 30
    SUBTITLE = static_fz
SUBCASE 4
    LOAD = 40
    SUBTITLE = static_mx
SUBCASE 5
    LOAD = 50
    SUBTITLE = static_my
SUBCASE 6
    LOAD = 60
    SUBTITLE = static_mz
BEGIN BULK
$PARAMS
PARAM   COUPMASS       1
PARAM       POST       1
$NODES
GRID           1              0.      0.      0.
GRID           2             .02      0.      0.
GRID           3             .04      0.      0.
GRID           4             .06      0.      0.
GRID           5             .08      0.      0.
GRID           6              .1      0.      0.
GRID           7             .12      0.      0.
GRID           8             .14      0.      0.
GRID           9             .16      0.      0.
GRID          10             .18      0.      0.
GRID          11              .2      0.      0.
GRID          12             .22      0.      0.
GRID          13             .24      0.      0.
GRID          14             .26      0.      0.
GRID          15             .28      0.      0.
GRID          16              .3      0.      0.
GRID          17             .32      0.      0.
GRID          18             .34      0.      0.
GRID          19             .36      0.      0.
GRID          20             .38      0.      0.
$ ... 31 like lines cut
$ELEMENTS
CBAR           1       1       1       2      0.      1.      0.
CBAR           2       2       2       3      0.      1.      0.
CBAR           3       3       3       4      0.      1.      0.
CBAR           4       4       4       5      0.      1.      0.
CBAR           5       5       5       6      0.      1.      0.
CBAR           6       6       6       7      0.      1.      0.
CBAR           7       7       7       8      0.      1.      0.
CBAR           8       8       8       9      0.      1.      0.
CBAR           9       9       9      10      0.      1.      0.
CBAR          10      10      10      11      0.      1.      0.
CBAR          11      11      11      12      0.      1.      0.
CBAR          12      12      12      13      0.      1.      0.
CBAR          13      13      13      14      0.      1.      0.
CBAR          14      14      14      15      0.      1.      0.
CBAR          15      15      15      16      0.      1.      0.
CBAR          16      16      16      17      0.      1.      0.
CBAR          17      17      17      18      0.      1.      0.
CBAR          18      18      18      19      0.      1.      0.
CBAR          19      19      19      20      0.      1.      0.
CBAR          20      20      20      21      0.      1.      0.
$ ... 30 like lines cut
$PROPERTIES
PBARL          1       1             BAR
          .00625    .025      0.
PBARL          2       1             BAR
          .00625    .025      0.
PBARL          3       1             BAR
          .00625    .025      0.
PBARL          4       1             BAR
          .00625    .025      0.
PBARL          5       1             BAR
          .00625    .025      0.
PBARL          6       1             BAR
          .00625    .025      0.
PBARL          7       1             BAR
          .00625    .025      0.
PBARL          8       1             BAR
          .00625    .025      0.
PBARL          9       1             BAR
          .00625    .025      0.
PBARL         10       1             BAR
          .00625    .025      0.
PBARL         11       1             BAR
          .00625    .025      0.
PBARL         12       1             BAR
          .00625    .025      0.
PBARL         13       1             BAR
          .00625    .025      0.
PBARL         14       1             BAR
          .00625    .025      0.
PBARL         15       1             BAR
          .00625    .025      0.
PBARL         16       1             BAR
          .00625    .025      0.
PBARL         17       1             BAR
          .00625    .025      0.
PBARL         18       1             BAR
          .00625    .025      0.
PBARL         19       1             BAR
          .00625    .025      0.
PBARL         20       1             BAR
          .00625    .025      0.
$ ... 60 like lines cut
$MATERIALS
$Aluminium 7075
MAT1           1 7.17+10             .33   2810.
$LOADS
FORCE         10      51        112031.3      1.      0.      0.
FORCE         20      51        10.94055      0.      1.      0.
FORCE         30      51        175.0488      0.      0.      1.
MOMENT        40      51        12.09654      1.      0.      0.
MOMENT        50      51        116.6992      0.      1.      0.
MOMENT        60      51        7.293701      0.      0.      1.
$SPCs
SPC1         100  123456       1
ENDDATA
