NASTRAN BARMASS=1
$EXECUTIVE CONTROL DECK
SOL 103
CEND
$CASE CONTROL DECK
DISPLACEMENT = ALL
SPC = 100
TITLE = cbar_pbar_baseline modal analysis
SUBCASE 1
    METHOD = 1
    SUBTITLE = modal
BEGIN BULK
$PARAMS
PARAM   COUPMASS       1
PARAM       POST       1
$NODES
GRID           1              0.      0.      0.
GRID           2             .02      0.      0.
GRID           3             .04      0.      0.
GRID           4             .06      0.      0.
GRID           5             .08      0.      0.
GRID           6              .1      0.      0.
GRID           7             .12      0.      0.
GRID           8             .14      0.      0.
GRID           9             .16      0.      0.
GRID          10             .18      0.      0.
GRID          11              .2      0.      0.
GRID          12             .22      0.      0.
GRID          13             .24      0.      0.
GRID          14             .26      0.      0.
GRID          15             .28      0.      0.
GRID          16              .3      0.      0.
GRID          17             .32      0.      0.
GRID          18             .34      0.      0.
GRID          19             .36      0.      0.
GRID          20             .38      0.      0.
$ ... 31 like lines cut
$ELEMENTS
CBAR           1       1       1       2      0.      1.      0.
CBAR           2       2       2       3      0.      1.      0.
CBAR           3       3       3       4      0.      1.      0.
CBAR           4       4       4       5      0.      1.      0.
CBAR           5       5       5       6      0.      1.      0.
CBAR           6       6       6       7      0.      1.      0.
CBAR           7       7       7       8      0.      1.      0.
CBAR           8       8       8       9      0.      1.      0.
CBAR           9       9       9      10      0.      1.      0.
CBAR          10      10      10      11      0.      1.      0.
CBAR          11      11      11      12      0.      1.      0.
CBAR          12      12      12      13      0.      1.      0.
CBAR          13      13      13      14      0.      1.      0.
CBAR          14      14      14      15      0.      1.      0.
CBAR          15      15      15      16      0.      1.      0.
CBAR          16      16      16      17      0.      1.      0.
CBAR          17      17      17      18      0.      1.      0.
CBAR          18      18      18      19      0.      1.      0.
CBAR          19      19      19      20      0.      1.      0.
CBAR          20      20      20      21      0.      1.      0.
$ ... 30 like lines cut
$PROPERTIES
PBAR           1       11.5625-45.086-10 8.138-91.7142-9
+
        .8333333.8333333
PBAR           2       11.5625-45.086-10 8.138-91.7142-9
+
        .8333333.8333333
PBAR           3       11.5625-45.086-10 8.138-91.7142-9
+
        .8333333.8333333
PBAR           4       11.5625-45.086-10 8.138-91.7142-9
+
        .8333333.8333333
PBAR           5       11.5625-45.086-10 8.138-91.7142-9
+
        .8333333.8333333
PBAR           6       11.5625-45.086-10 8.138-91.7142-9
+
        .8333333.8333333
PBAR           7       11.5625-45.086-10 8.138-91.7142-9
+
        .8333333.8333333
PBAR           8       11.5625-45.086-10 8.138-91.7142-9
+
        .8333333.8333333
PBAR           9       11.5625-45.086-10 8.138-91.7142-9
+
        .8333333.8333333
PBAR          10       11.5625-45.086-10 8.138-91.7142-9
+
        .8333333.8333333
PBAR          11       11.5625-45.086-10 8.138-91.7142-9
+
        .8333333.8333333
PBAR          12       11.5625-45.086-10 8.138-91.7142-9
+
        .8333333.8333333
PBAR          13       11.5625-45.086-10 8.138-91.7142-9
+
        .8333333.8333333
PBAR          14       11.5625-45.086-10 8.138-91.7142-9
+
        .8333333.8333333
PBAR          15       11.5625-45.086-10 8.138-91.7142-9
+
        .8333333.8333333
PBAR          16       11.5625-45.086-10 8.138-91.7142-9
+
        .8333333.8333333
PBAR          17       11.5625-45.086-10 8.138-91.7142-9
+
        .8333333.8333333
PBAR          18       11.5625-45.086-10 8.138-91.7142-9
+
        .8333333.8333333
PBAR          19       11.5625-45.086-10 8.138-91.7142-9
+
        .8333333.8333333
PBAR          20       11.5625-45.086-10 8.138-91.7142-9
+
        .8333333.8333333
PBAR          21       11.5625-45.086-10 8.138-91.7142-9
+
        .8333333.8333333
PBAR          22       11.5625-45.086-10 8.138-91.7142-9
+
        .8333333.8333333
PBAR          23       11.5625-45.086-10 8.138-91.7142-9
+
        .8333333.8333333
PBAR          24       11.5625-45.086-10 8.138-91.7142-9
+
        .8333333.8333333
PBAR          25       11.5625-45.086-10 8.138-91.7142-9
+
        .8333333.8333333
PBAR          26       11.5625-45.086-10 8.138-91.7142-9
+
        .8333333.8333333
PBAR          27       11.5625-45.086-10 8.138-91.7142-9
+
        .8333333.8333333
PBAR          28       11.5625-45.086-10 8.138-91.7142-9
+
        .8333333.8333333
PBAR          29       11.5625-45.086-10 8.138-91.7142-9
+
        .8333333.8333333
PBAR          30       11.5625-45.086-10 8.138-91.7142-9
+
        .8333333.8333333
PBAR          31       11.5625-45.086-10 8.138-91.7142-9
+
        .8333333.8333333
PBAR          32       11.5625-45.086-10 8.138-91.7142-9
+
        .8333333.8333333
PBAR          33       11.5625-45.086-10 8.138-91.7142-9
+
        .8333333.8333333
PBAR          34       11.5625-45.086-10 8.138-91.7142-9
+
        .8333333.8333333
PBAR          35       11.5625-45.086-10 8.138-91.7142-9
+
        .8333333.8333333
PBAR          36       11.5625-45.086-10 8.138-91.7142-9
+
        .8333333.8333333
PBAR          37       11.5625-45.086-10 8.138-91.7142-9
+
        .8333333.8333333
PBAR          38       11.5625-45.086-10 8.138-91.7142-9
+
        .8333333.8333333
PBAR          39       11.5625-45.086-10 8.138-91.7142-9
+
        .8333333.8333333
PBAR          40       11.5625-45.086-10 8.138-91.7142-9
+
        .8333333.8333333
PBAR          41       11.5625-45.086-10 8.138-91.7142-9
+
        .8333333.8333333
PBAR          42       11.5625-45.086-10 8.138-91.7142-9
+
        .8333333.8333333
PBAR          43       11.5625-45.086-10 8.138-91.7142-9
+
        .8333333.8333333
PBAR          44       11.5625-45.086-10 8.138-91.7142-9
+
        .8333333.8333333
PBAR          45       11.5625-45.086-10 8.138-91.7142-9
+
        .8333333.8333333
PBAR          46       11.5625-45.086-10 8.138-91.7142-9
+
        .8333333.8333333
PBAR          47       11.5625-45.086-10 8.138-91.7142-9
+
        .8333333.8333333
PBAR          48       11.5625-45.086-10 8.138-91.7142-9
+
        .8333333.8333333
PBAR          49       11.5625-45.086-10 8.138-91.7142-9
+
        .8333333.8333333
PBAR          50       11.5625-45.086-10 8.138-91.7142-9
+
        .8333333.8333333
$MATERIALS
$Aluminium 7075
MAT1           1 7.17+10             .33   2810.
$LOADS
FORCE         10      51        112031.3      1.      0.      0.
FORCE         20      51        10.94055      0.      1.      0.
FORCE         30      51        175.0488      0.      0.      1.
MOMENT        40      51        12.09654      1.      0.      0.
MOMENT        50      51        116.6992      0.      1.      0.
MOMENT        60      51        7.293701      0.      0.      1.
$DYNAMIC
EIGRL          1                      12
$SPCs
SPC1         100  123456       1
ENDDATA
