NASTRAN BARMASS=1
$EXECUTIVE CONTROL DECK
SOL 103
CEND
$CASE CONTROL DECK
DISPLACEMENT = ALL
SPC = 100
TITLE = cbar_pbarl_tube2_rotation modal analysis
SUBCASE 1
    METHOD = 1
    SUBTITLE = modal
BEGIN BULK
$PARAMS
PARAM   COUPMASS       1
PARAM       POST       1
$NODES
GRID           1              0.      0.      0.
GRID           2        .0333333      0.      0.
GRID           3        .0666667      0.      0.
GRID           4              .1      0.      0.
GRID           5        .1333333      0.      0.
GRID           6        .1666667      0.      0.
GRID           7              .2      0.      0.
GRID           8        .2333333      0.      0.
GRID           9        .2666667      0.      0.
GRID          10              .3      0.      0.
GRID          11        .3333333      0.      0.
GRID          12        .3666667      0.      0.
GRID          13              .4      0.      0.
GRID          14        .4333333      0.      0.
GRID          15        .4666667      0.      0.
GRID          16              .5      0.      0.
GRID          17        .5333333      0.      0.
GRID          18        .5666667      0.      0.
GRID          19              .6      0.      0.
GRID          20        .6333333      0.      0.
$ ... 11 like lines cut
$ELEMENTS
CBAR           1       1       1       2      0..8660254      .5
CBAR           2       2       2       3      0..8660254      .5
CBAR           3       3       3       4      0..8660254      .5
CBAR           4       4       4       5      0..8660254      .5
CBAR           5       5       5       6      0..8660254      .5
CBAR           6       6       6       7      0..8660254      .5
CBAR           7       7       7       8      0..8660254      .5
CBAR           8       8       8       9      0..8660254      .5
CBAR           9       9       9      10      0..8660254      .5
CBAR          10      10      10      11      0..8660254      .5
CBAR          11      11      11      12      0..8660254      .5
CBAR          12      12      12      13      0..8660254      .5
CBAR          13      13      13      14      0..8660254      .5
CBAR          14      14      14      15      0..8660254      .5
CBAR          15      15      15      16      0..8660254      .5
CBAR          16      16      16      17      0..8660254      .5
CBAR          17      17      17      18      0..8660254      .5
CBAR          18      18      18      19      0..8660254      .5
CBAR          19      19      19      20      0..8660254      .5
CBAR          20      20      20      21      0..8660254      .5
$ ... 10 like lines cut
$PROPERTIES
PBARL          1       1           TUBE2
              .1     .01      0.
PBARL          2       1           TUBE2
              .1     .01      0.
PBARL          3       1           TUBE2
              .1     .01      0.
PBARL          4       1           TUBE2
              .1     .01      0.
PBARL          5       1           TUBE2
              .1     .01      0.
PBARL          6       1           TUBE2
              .1     .01      0.
PBARL          7       1           TUBE2
              .1     .01      0.
PBARL          8       1           TUBE2
              .1     .01      0.
PBARL          9       1           TUBE2
              .1     .01      0.
PBARL         10       1           TUBE2
              .1     .01      0.
PBARL         11       1           TUBE2
              .1     .01      0.
PBARL         12       1           TUBE2
              .1     .01      0.
PBARL         13       1           TUBE2
              .1     .01      0.
PBARL         14       1           TUBE2
              .1     .01      0.
PBARL         15       1           TUBE2
              .1     .01      0.
PBARL         16       1           TUBE2
              .1     .01      0.
PBARL         17       1           TUBE2
              .1     .01      0.
PBARL         18       1           TUBE2
              .1     .01      0.
PBARL         19       1           TUBE2
              .1     .01      0.
PBARL         20       1           TUBE2
              .1     .01      0.
$ ... 20 like lines cut
$MATERIALS
$Aluminium 7075
MAT1           1 7.17+10             .33   2810.
$LOADS
FORCE         10      31          10000.      1.      0.      0.
FORCE         20      31          10000.      0.      1.      0.
FORCE         30      31          10000.      0.      0.      1.
MOMENT        40      31           1000.      1.      0.      0.
MOMENT        50      31           1000.      0.      1.      0.
MOMENT        60      31           1000.      0.      0.      1.
$DYNAMIC
EIGRL          1                      10
$SPCs
SPC1         100  123456       1
ENDDATA
