NASTRAN BARMASS=1
$EXECUTIVE CONTROL DECK
SOL 103
CEND
$CASE CONTROL DECK
DISPLACEMENT = ALL
SPC = 100
TITLE = cbeam_pbeam_taper_rotation_wa_n modal analysis
SUBCASE 1
    METHOD = 1
    SUBTITLE = modal
BEGIN BULK
$PARAMS
PARAM   COUPMASS       1
PARAM       POST       1
$NODES
GRID           1              0.      0.      0.
GRID           2        .0333333      0.      0.
GRID           3        .0666667      0.      0.
GRID           4              .1      0.      0.
GRID           5        .1333333      0.      0.
GRID           6        .1666667      0.      0.
GRID           7              .2      0.      0.
GRID           8        .2333333      0.      0.
GRID           9        .2666667      0.      0.
GRID          10              .3      0.      0.
GRID          11        .3333333      0.      0.
GRID          12        .3666667      0.      0.
GRID          13              .4      0.      0.
GRID          14        .4333333      0.      0.
GRID          15        .4666667      0.      0.
GRID          16              .5      0.      0.
GRID          17        .5333333      0.      0.
GRID          18        .5666667      0.      0.
GRID          19              .6      0.      0.
GRID          20        .6333333      0.      0.
$ ... 11 like lines cut
$ELEMENTS
CBEAM          1       1       1       2      0..8660254      .5
                                      .4      .1              .4      .1
CBEAM          2       2       2       3      0..8660254      .5
                                      .4      .1              .4      .1
CBEAM          3       3       3       4      0..8660254      .5
                                      .4      .1              .4      .1
CBEAM          4       4       4       5      0..8660254      .5
                                      .4      .1              .4      .1
CBEAM          5       5       5       6      0..8660254      .5
                                      .4      .1              .4      .1
CBEAM          6       6       6       7      0..8660254      .5
                                      .4      .1              .4      .1
CBEAM          7       7       7       8      0..8660254      .5
                                      .4      .1              .4      .1
CBEAM          8       8       8       9      0..8660254      .5
                                      .4      .1              .4      .1
CBEAM          9       9       9      10      0..8660254      .5
                                      .4      .1              .4      .1
CBEAM         10      10      10      11      0..8660254      .5
                                      .4      .1              .4      .1
CBEAM         11      11      11      12      0..8660254      .5
                                      .4      .1              .4      .1
CBEAM         12      12      12      13      0..8660254      .5
                                      .4      .1              .4      .1
CBEAM         13      13      13      14      0..8660254      .5
                                      .4      .1              .4      .1
CBEAM         14      14      14      15      0..8660254      .5
                                      .4      .1              .4      .1
CBEAM         15      15      15      16      0..8660254      .5
                                      .4      .1              .4      .1
CBEAM         16      16      16      17      0..8660254      .5
                                      .4      .1              .4      .1
CBEAM         17      17      17      18      0..8660254      .5
                                      .4      .1              .4      .1
CBEAM         18      18      18      19      0..8660254      .5
                                      .4      .1              .4      .1
CBEAM         19      19      19      20      0..8660254      .5
                                      .4      .1              .4      .1
CBEAM         20      20      20      21      0..8660254      .5
                                      .4      .1              .4      .1
$ ... 20 like lines cut
$PROPERTIES
PBEAM          1       1     .013.3333-52.0833-6        7.0213-6
+
              NO      1..00966943.1166-51.9479-6        6.5647-6
        .8333333.8333333
                                              .4      .1
PBEAM          2       1.00966943.1166-51.9479-6        6.5647-6
+
              NO      1..00934442.9106-51.8191-6        6.1309-6
        .8333333.8333333
                                              .4      .1
PBEAM          3       1.00934442.9106-51.8191-6        6.1309-6
+
              NO      1. .009025 2.715-51.6969-6        5.7189-6
        .8333333.8333333
                                              .4      .1
PBEAM          4       1 .009025 2.715-51.6969-6        5.7189-6
+
              NO      1..00871112.5294-51.5809-6         5.328-6
        .8333333.8333333
                                              .4      .1
PBEAM          5       1.00871112.5294-51.5809-6         5.328-6
+
              NO      1..00840282.3536-5 1.471-6        4.9575-6
        .8333333.8333333
                                              .4      .1
PBEAM          6       1.00840282.3536-5 1.471-6        4.9575-6
+
              NO      1.   .0081 2.187-51.3669-6        4.6066-6
        .8333333.8333333
                                              .4      .1
PBEAM          7       1   .0081 2.187-51.3669-6        4.6066-6
+
              NO      1..00780282.0294-51.2684-6        4.2748-6
        .8333333.8333333
                                              .4      .1
PBEAM          8       1.00780282.0294-51.2684-6        4.2748-6
+
              NO      1..00751111.8806-51.1753-6        3.9612-6
        .8333333.8333333
                                              .4      .1
PBEAM          9       1.00751111.8806-51.1753-6        3.9612-6
+
              NO      1. .007225.00001741.0875-6        3.6651-6
        .8333333.8333333
                                              .4      .1
PBEAM         10       1 .007225.00001741.0875-6        3.6651-6
+
              NO      1..00694441.6075-51.0047-6         3.386-6
        .8333333.8333333
                                              .4      .1
PBEAM         11       1.00694441.6075-51.0047-6         3.386-6
+
              NO      1..00666941.4827-5 9.267-7        3.1232-6
        .8333333.8333333
                                              .4      .1
PBEAM         12       1.00666941.4827-5 9.267-7        3.1232-6
+
              NO      1.   .00641.3653-58.5333-7        2.8759-6
        .8333333.8333333
                                              .4      .1
PBEAM         13       1   .00641.3653-58.5333-7        2.8759-6
+
              NO      1..00613611.2551-57.8441-7        2.6436-6
        .8333333.8333333
                                              .4      .1
PBEAM         14       1.00613611.2551-57.8441-7        2.6436-6
+
              NO      1..00587781.1516-57.1976-7        2.4257-6
        .8333333.8333333
                                              .4      .1
PBEAM         15       1.00587781.1516-57.1976-7        2.4257-6
+
              NO      1. .0056251.0547-56.5918-7        2.2216-6
        .8333333.8333333
                                              .4      .1
PBEAM         16       1 .0056251.0547-56.5918-7        2.2216-6
+
              NO      1..00537789.6402-66.0251-7        2.0306-6
        .8333333.8333333
                                              .4      .1
PBEAM         17       1.00537789.6402-66.0251-7        2.0306-6
+
              NO      1..00513618.7932-65.4958-7        1.8522-6
        .8333333.8333333
                                              .4      .1
PBEAM         18       1.00513618.7932-65.4958-7        1.8522-6
+
              NO      1.   .00498.0033-65.0021-7        1.6858-6
        .8333333.8333333
                                              .4      .1
PBEAM         19       1   .00498.0033-65.0021-7        1.6858-6
+
              NO      1..00466947.2679-64.5424-7        1.5309-6
        .8333333.8333333
                                              .4      .1
PBEAM         20       1.00466947.2679-64.5424-7        1.5309-6
+
              NO      1..00444446.5844-64.1152-7        1.3869-6
        .8333333.8333333
                                              .4      .1
PBEAM         21       1.00444446.5844-64.1152-7        1.3869-6
+
              NO      1. .0042255.9502-63.7189-7        1.2533-6
        .8333333.8333333
                                              .4      .1
PBEAM         22       1 .0042255.9502-63.7189-7        1.2533-6
+
              NO      1..0040111 5.363-63.3519-7        1.1297-6
        .8333333.8333333
                                              .4      .1
PBEAM         23       1.0040111 5.363-63.3519-7        1.1297-6
+
              NO      1..00380284.8204-63.0127-7        1.0154-6
        .8333333.8333333
                                              .4      .1
PBEAM         24       1.00380284.8204-63.0127-7        1.0154-6
+
              NO      1.   .0036  4.32-6   2.7-7        9.0996-7
        .8333333.8333333
                                              .4      .1
PBEAM         25       1   .0036  4.32-6   2.7-7        9.0996-7
+
              NO      1..00340283.8596-62.4123-7        8.1298-7
        .8333333.8333333
                                              .4      .1
PBEAM         26       1.00340283.8596-62.4123-7        8.1298-7
+
              NO      1..00321113.4371-62.1482-7        7.2398-7
        .8333333.8333333
                                              .4      .1
PBEAM         27       1.00321113.4371-62.1482-7        7.2398-7
+
              NO      1. .0030253.0502-61.9064-7        6.4249-7
        .8333333.8333333
                                              .4      .1
PBEAM         28       1 .0030253.0502-61.9064-7        6.4249-7
+
              NO      1..0028444 2.697-61.6856-7        5.6808-7
        .8333333.8333333
                                              .4      .1
PBEAM         29       1.0028444 2.697-61.6856-7        5.6808-7
+
              NO      1..00266942.3753-61.4846-7        5.0033-7
        .8333333.8333333
                                              .4      .1
PBEAM         30       1.00266942.3753-61.4846-7        5.0033-7
+
              NO      1.   .00252.0833-61.3021-7        4.3883-7
        .8333333.8333333
                                              .4      .1
$MATERIALS
$Aluminium 7075
MAT1           1 7.17+10             .33   2810.
$LOADS
FORCE         10      31          10000.      1.      0.      0.
FORCE         20      31          10000.      0.      1.      0.
FORCE         30      31          10000.      0.      0.      1.
MOMENT        40      31           1000.      1.      0.      0.
MOMENT        50      31           1000.      0.      1.      0.
MOMENT        60      31           1000.      0.      0.      1.
$DYNAMIC
EIGRL          1                      10
$SPCs
SPC1         100  123456       1
ENDDATA
