NASTRAN BARMASS=1
$EXECUTIVE CONTROL DECK
SOL 103
CEND
$CASE CONTROL DECK
DISPLACEMENT = ALL
SPC = 100
TITLE = cbeam_pbeaml_rod_taper_rotation_nsm modal analysis
SUBCASE 1
    METHOD = 1
    SUBTITLE = modal
BEGIN BULK
$PARAMS
PARAM   COUPMASS       1
PARAM       POST       1
$NODES
GRID           1              0.      0.      0.
GRID           2        .0333333      0.      0.
GRID           3        .0666667      0.      0.
GRID           4              .1      0.      0.
GRID           5        .1333333      0.      0.
GRID           6        .1666667      0.      0.
GRID           7              .2      0.      0.
GRID           8        .2333333      0.      0.
GRID           9        .2666667      0.      0.
GRID          10              .3      0.      0.
GRID          11        .3333333      0.      0.
GRID          12        .3666667      0.      0.
GRID          13              .4      0.      0.
GRID          14        .4333333      0.      0.
GRID          15        .4666667      0.      0.
GRID          16              .5      0.      0.
GRID          17        .5333333      0.      0.
GRID          18        .5666667      0.      0.
GRID          19              .6      0.      0.
GRID          20        .6333333      0.      0.
$ ... 11 like lines cut
$ELEMENTS
CBEAM          1       1       1       2      0..8660254      .5
CBEAM          2       2       2       3      0..8660254      .5
CBEAM          3       3       3       4      0..8660254      .5
CBEAM          4       4       4       5      0..8660254      .5
CBEAM          5       5       5       6      0..8660254      .5
CBEAM          6       6       6       7      0..8660254      .5
CBEAM          7       7       7       8      0..8660254      .5
CBEAM          8       8       8       9      0..8660254      .5
CBEAM          9       9       9      10      0..8660254      .5
CBEAM         10      10      10      11      0..8660254      .5
CBEAM         11      11      11      12      0..8660254      .5
CBEAM         12      12      12      13      0..8660254      .5
CBEAM         13      13      13      14      0..8660254      .5
CBEAM         14      14      14      15      0..8660254      .5
CBEAM         15      15      15      16      0..8660254      .5
CBEAM         16      16      16      17      0..8660254      .5
CBEAM         17      17      17      18      0..8660254      .5
CBEAM         18      18      18      19      0..8660254      .5
CBEAM         19      19      19      20      0..8660254      .5
CBEAM         20      20      20      21      0..8660254      .5
$ ... 10 like lines cut
$PROPERTIES
PBEAML         1       1             ROD
             .05    28.1     YES      1..0491667    28.1
PBEAML         2       1             ROD
        .0491667    28.1     YES      1..0483333    28.1
PBEAML         3       1             ROD
        .0483333    28.1     YES      1.   .0475    28.1
PBEAML         4       1             ROD
           .0475    28.1     YES      1..0466667    28.1
PBEAML         5       1             ROD
        .0466667    28.1     YES      1..0458333    28.1
PBEAML         6       1             ROD
        .0458333    28.1     YES      1.    .045    28.1
PBEAML         7       1             ROD
            .045    28.1     YES      1..0441667    28.1
PBEAML         8       1             ROD
        .0441667    28.1     YES      1..0433333    28.1
PBEAML         9       1             ROD
        .0433333    28.1     YES      1.   .0425    28.1
PBEAML        10       1             ROD
           .0425    28.1     YES      1..0416667    28.1
PBEAML        11       1             ROD
        .0416667    28.1     YES      1..0408333    28.1
PBEAML        12       1             ROD
        .0408333    28.1     YES      1.     .04    28.1
PBEAML        13       1             ROD
             .04    28.1     YES      1..0391667    28.1
PBEAML        14       1             ROD
        .0391667    28.1     YES      1..0383333    28.1
PBEAML        15       1             ROD
        .0383333    28.1     YES      1.   .0375    28.1
PBEAML        16       1             ROD
           .0375    28.1     YES      1..0366667    28.1
PBEAML        17       1             ROD
        .0366667    28.1     YES      1..0358333    28.1
PBEAML        18       1             ROD
        .0358333    28.1     YES      1.    .035    28.1
PBEAML        19       1             ROD
            .035    28.1     YES      1..0341667    28.1
PBEAML        20       1             ROD
        .0341667    28.1     YES      1..0333333    28.1
$ ... 20 like lines cut
$MATERIALS
$Aluminium 7075
MAT1           1 7.17+10             .33   2810.
$LOADS
FORCE         10      31          10000.      1.      0.      0.
FORCE         20      31          10000.      0.      1.      0.
FORCE         30      31          10000.      0.      0.      1.
MOMENT        40      31           1000.      1.      0.      0.
MOMENT        50      31           1000.      0.      1.      0.
MOMENT        60      31           1000.      0.      0.      1.
$DYNAMIC
EIGRL          1                      10
$SPCs
SPC1         100  123456       1
ENDDATA
