NASTRAN BARMASS=1
$EXECUTIVE CONTROL DECK
SOL 101
CEND
$CASE CONTROL DECK
DISPLACEMENT = ALL
SPC = 100
STRESS = ALL
TITLE = cbeam_pbeaml_bar_taper_rotation_wa_nsm static analysis
SUBCASE 1
    LOAD = 10
    SUBTITLE = static_fx
SUBCASE 2
    LOAD = 20
    SUBTITLE = static_fy
SUBCASE 3
    LOAD = 30
    SUBTITLE = static_fz
SUBCASE 4
    LOAD = 40
    SUBTITLE = static_mx
SUBCASE 5
    LOAD = 50
    SUBTITLE = static_my
SUBCASE 6
    LOAD = 60
    SUBTITLE = static_mz
BEGIN BULK
$PARAMS
PARAM   COUPMASS       1
PARAM       POST       1
$NODES
GRID           1              0.      0.      0.
GRID           2        .0333333      0.      0.
GRID           3        .0666667      0.      0.
GRID           4              .1      0.      0.
GRID           5        .1333333      0.      0.
GRID           6        .1666667      0.      0.
GRID           7              .2      0.      0.
GRID           8        .2333333      0.      0.
GRID           9        .2666667      0.      0.
GRID          10              .3      0.      0.
GRID          11        .3333333      0.      0.
GRID          12        .3666667      0.      0.
GRID          13              .4      0.      0.
GRID          14        .4333333      0.      0.
GRID          15        .4666667      0.      0.
GRID          16              .5      0.      0.
GRID          17        .5333333      0.      0.
GRID          18        .5666667      0.      0.
GRID          19              .6      0.      0.
GRID          20        .6333333      0.      0.
$ ... 11 like lines cut
$ELEMENTS
CBEAM          1       1       1       2      0..8660254      .5
                                      .1      .4              .1      .4
CBEAM          2       2       2       3      0..8660254      .5
                                      .1      .4              .1      .4
CBEAM          3       3       3       4      0..8660254      .5
                                      .1      .4              .1      .4
CBEAM          4       4       4       5      0..8660254      .5
                                      .1      .4              .1      .4
CBEAM          5       5       5       6      0..8660254      .5
                                      .1      .4              .1      .4
CBEAM          6       6       6       7      0..8660254      .5
                                      .1      .4              .1      .4
CBEAM          7       7       7       8      0..8660254      .5
                                      .1      .4              .1      .4
CBEAM          8       8       8       9      0..8660254      .5
                                      .1      .4              .1      .4
CBEAM          9       9       9      10      0..8660254      .5
                                      .1      .4              .1      .4
CBEAM         10      10      10      11      0..8660254      .5
                                      .1      .4              .1      .4
CBEAM         11      11      11      12      0..8660254      .5
                                      .1      .4              .1      .4
CBEAM         12      12      12      13      0..8660254      .5
                                      .1      .4              .1      .4
CBEAM         13      13      13      14      0..8660254      .5
                                      .1      .4              .1      .4
CBEAM         14      14      14      15      0..8660254      .5
                                      .1      .4              .1      .4
CBEAM         15      15      15      16      0..8660254      .5
                                      .1      .4              .1      .4
CBEAM         16      16      16      17      0..8660254      .5
                                      .1      .4              .1      .4
CBEAM         17      17      17      18      0..8660254      .5
                                      .1      .4              .1      .4
CBEAM         18      18      18      19      0..8660254      .5
                                      .1      .4              .1      .4
CBEAM         19      19      19      20      0..8660254      .5
                                      .1      .4              .1      .4
CBEAM         20      20      20      21      0..8660254      .5
                                      .1      .4              .1      .4
$ ... 20 like lines cut
$PROPERTIES
PBEAML         1       1             BAR
             .05      .2    28.1     YES      1..0491667.1966667    28.1
PBEAML         2       1             BAR
        .0491667.1966667    28.1     YES      1..0483333.1933333    28.1
PBEAML         3       1             BAR
        .0483333.1933333    28.1     YES      1.   .0475     .19    28.1
PBEAML         4       1             BAR
           .0475     .19    28.1     YES      1..0466667.1866667    28.1
PBEAML         5       1             BAR
        .0466667.1866667    28.1     YES      1..0458333.1833333    28.1
PBEAML         6       1             BAR
        .0458333.1833333    28.1     YES      1.    .045     .18    28.1
PBEAML         7       1             BAR
            .045     .18    28.1     YES      1..0441667.1766667    28.1
PBEAML         8       1             BAR
        .0441667.1766667    28.1     YES      1..0433333.1733333    28.1
PBEAML         9       1             BAR
        .0433333.1733333    28.1     YES      1.   .0425     .17    28.1
PBEAML        10       1             BAR
           .0425     .17    28.1     YES      1..0416667.1666667    28.1
PBEAML        11       1             BAR
        .0416667.1666667    28.1     YES      1..0408333.1633333    28.1
PBEAML        12       1             BAR
        .0408333.1633333    28.1     YES      1.     .04     .16    28.1
PBEAML        13       1             BAR
             .04     .16    28.1     YES      1..0391667.1566667    28.1
PBEAML        14       1             BAR
        .0391667.1566667    28.1     YES      1..0383333.1533333    28.1
PBEAML        15       1             BAR
        .0383333.1533333    28.1     YES      1.   .0375     .15    28.1
PBEAML        16       1             BAR
           .0375     .15    28.1     YES      1..0366667.1466667    28.1
PBEAML        17       1             BAR
        .0366667.1466667    28.1     YES      1..0358333.1433333    28.1
PBEAML        18       1             BAR
        .0358333.1433333    28.1     YES      1.    .035     .14    28.1
PBEAML        19       1             BAR
            .035     .14    28.1     YES      1..0341667.1366667    28.1
PBEAML        20       1             BAR
        .0341667.1366667    28.1     YES      1..0333333.1333333    28.1
$ ... 20 like lines cut
$MATERIALS
$Aluminium 7075
MAT1           1 7.17+10             .33   2810.
$LOADS
FORCE         10      31          10000.      1.      0.      0.
FORCE         20      31          10000.      0.      1.      0.
FORCE         30      31          10000.      0.      0.      1.
MOMENT        40      31           1000.      1.      0.      0.
MOMENT        50      31           1000.      0.      1.      0.
MOMENT        60      31           1000.      0.      0.      1.
$SPCs
SPC1         100  123456       1
ENDDATA
