NASTRAN BARMASS=1
$EXECUTIVE CONTROL DECK
SOL 103
CEND
$CASE CONTROL DECK
DISPLACEMENT = ALL
SPC = 100
TITLE = cbeam_pbeaml_tube2_taper_rotation_nsm modal analysis
SUBCASE 1
    METHOD = 1
    SUBTITLE = modal
BEGIN BULK
$PARAMS
PARAM   COUPMASS       1
PARAM       POST       1
$NODES
GRID           1              0.      0.      0.
GRID           2             .02      0.      0.
GRID           3             .04      0.      0.
GRID           4             .06      0.      0.
GRID           5             .08      0.      0.
GRID           6              .1      0.      0.
GRID           7             .12      0.      0.
GRID           8             .14      0.      0.
GRID           9             .16      0.      0.
GRID          10             .18      0.      0.
GRID          11              .2      0.      0.
GRID          12             .22      0.      0.
GRID          13             .24      0.      0.
GRID          14             .26      0.      0.
GRID          15             .28      0.      0.
GRID          16              .3      0.      0.
GRID          17             .32      0.      0.
GRID          18             .34      0.      0.
GRID          19             .36      0.      0.
GRID          20             .38      0.      0.
$ ... 31 like lines cut
$ELEMENTS
CBEAM          1       1       1       2      0..8660254      .5
CBEAM          2       2       2       3      0..8660254      .5
CBEAM          3       3       3       4      0..8660254      .5
CBEAM          4       4       4       5      0..8660254      .5
CBEAM          5       5       5       6      0..8660254      .5
CBEAM          6       6       6       7      0..8660254      .5
CBEAM          7       7       7       8      0..8660254      .5
CBEAM          8       8       8       9      0..8660254      .5
CBEAM          9       9       9      10      0..8660254      .5
CBEAM         10      10      10      11      0..8660254      .5
CBEAM         11      11      11      12      0..8660254      .5
CBEAM         12      12      12      13      0..8660254      .5
CBEAM         13      13      13      14      0..8660254      .5
CBEAM         14      14      14      15      0..8660254      .5
CBEAM         15      15      15      16      0..8660254      .5
CBEAM         16      16      16      17      0..8660254      .5
CBEAM         17      17      17      18      0..8660254      .5
CBEAM         18      18      18      19      0..8660254      .5
CBEAM         19      19      19      20      0..8660254      .5
CBEAM         20      20      20      21      0..8660254      .5
$ ... 30 like lines cut
$PROPERTIES
PBEAML         1       1           TUBE2
           .0125 .000625.4390625     YES      1. .0123756.1875-4.4390625
PBEAML         2       1           TUBE2
         .0123756.1875-4.4390625     YES      1.  .01225.0006125.4390625
PBEAML         3       1           TUBE2
          .01225.0006125.4390625     YES      1. .0121256.0625-4.4390625
PBEAML         4       1           TUBE2
         .0121256.0625-4.4390625     YES      1.    .012   .0006.4390625
PBEAML         5       1           TUBE2
            .012   .0006.4390625     YES      1. .0118755.9375-4.4390625
PBEAML         6       1           TUBE2
         .0118755.9375-4.4390625     YES      1.  .01175.0005875.4390625
PBEAML         7       1           TUBE2
          .01175.0005875.4390625     YES      1. .0116255.8125-4.4390625
PBEAML         8       1           TUBE2
         .0116255.8125-4.4390625     YES      1.   .0115 .000575.4390625
PBEAML         9       1           TUBE2
           .0115 .000575.4390625     YES      1. .0113755.6875-4.4390625
PBEAML        10       1           TUBE2
         .0113755.6875-4.4390625     YES      1.  .01125.0005625.4390625
PBEAML        11       1           TUBE2
          .01125.0005625.4390625     YES      1. .0111255.5625-4.4390625
PBEAML        12       1           TUBE2
         .0111255.5625-4.4390625     YES      1.    .011  .00055.4390625
PBEAML        13       1           TUBE2
            .011  .00055.4390625     YES      1. .0108755.4375-4.4390625
PBEAML        14       1           TUBE2
         .0108755.4375-4.4390625     YES      1.  .01075.0005375.4390625
PBEAML        15       1           TUBE2
          .01075.0005375.4390625     YES      1. .0106255.3125-4.4390625
PBEAML        16       1           TUBE2
         .0106255.3125-4.4390625     YES      1.   .0105 .000525.4390625
PBEAML        17       1           TUBE2
           .0105 .000525.4390625     YES      1. .0103755.1875-4.4390625
PBEAML        18       1           TUBE2
         .0103755.1875-4.4390625     YES      1.  .01025.0005125.4390625
PBEAML        19       1           TUBE2
          .01025.0005125.4390625     YES      1. .0101255.0625-4.4390625
PBEAML        20       1           TUBE2
         .0101255.0625-4.4390625     YES      1.     .01   .0005.4390625
$ ... 60 like lines cut
$MATERIALS
$Aluminium 7075
MAT1           1 7.17+10             .33   2810.
$LOADS
FORCE         10      51        34315.76      1.      0.      0.
FORCE         20      51        76.50673      0.      1.      0.
FORCE         30      51        76.50673      0.      0.      1.
MOMENT        40      51        50.19903      1.      0.      0.
MOMENT        50      51        51.00448      0.      1.      0.
MOMENT        60      51        51.00448      0.      0.      1.
$DYNAMIC
EIGRL          1                      12
$SPCs
SPC1         100  123456       1
ENDDATA
