NASTRAN BARMASS=1
$EXECUTIVE CONTROL DECK
SOL 101
CEND
$CASE CONTROL DECK
DISPLACEMENT = ALL
SPC = 100
STRESS = ALL
TITLE = cbeam_pbeam_taper_rotation_wa_n_nsm static analysis
SUBCASE 1
    LOAD = 10
    SUBTITLE = static_fx
SUBCASE 2
    LOAD = 20
    SUBTITLE = static_fy
SUBCASE 3
    LOAD = 30
    SUBTITLE = static_fz
SUBCASE 4
    LOAD = 40
    SUBTITLE = static_mx
SUBCASE 5
    LOAD = 50
    SUBTITLE = static_my
SUBCASE 6
    LOAD = 60
    SUBTITLE = static_mz
BEGIN BULK
$PARAMS
PARAM   COUPMASS       1
PARAM       POST       1
$NODES
GRID           1              0.      0.      0.
GRID           2             .02      0.      0.
GRID           3             .04      0.      0.
GRID           4             .06      0.      0.
GRID           5             .08      0.      0.
GRID           6              .1      0.      0.
GRID           7             .12      0.      0.
GRID           8             .14      0.      0.
GRID           9             .16      0.      0.
GRID          10             .18      0.      0.
GRID          11              .2      0.      0.
GRID          12             .22      0.      0.
GRID          13             .24      0.      0.
GRID          14             .26      0.      0.
GRID          15             .28      0.      0.
GRID          16              .3      0.      0.
GRID          17             .32      0.      0.
GRID          18             .34      0.      0.
GRID          19             .36      0.      0.
GRID          20             .38      0.      0.
$ ... 31 like lines cut
$ELEMENTS
CBEAM          1       1       1       2      0..8660254      .5
                                   .0125     .05           .0125     .05
CBEAM          2       2       2       3      0..8660254      .5
                                   .0125     .05           .0125     .05
CBEAM          3       3       3       4      0..8660254      .5
                                   .0125     .05           .0125     .05
CBEAM          4       4       4       5      0..8660254      .5
                                   .0125     .05           .0125     .05
CBEAM          5       5       5       6      0..8660254      .5
                                   .0125     .05           .0125     .05
CBEAM          6       6       6       7      0..8660254      .5
                                   .0125     .05           .0125     .05
CBEAM          7       7       7       8      0..8660254      .5
                                   .0125     .05           .0125     .05
CBEAM          8       8       8       9      0..8660254      .5
                                   .0125     .05           .0125     .05
CBEAM          9       9       9      10      0..8660254      .5
                                   .0125     .05           .0125     .05
CBEAM         10      10      10      11      0..8660254      .5
                                   .0125     .05           .0125     .05
CBEAM         11      11      11      12      0..8660254      .5
                                   .0125     .05           .0125     .05
CBEAM         12      12      12      13      0..8660254      .5
                                   .0125     .05           .0125     .05
CBEAM         13      13      13      14      0..8660254      .5
                                   .0125     .05           .0125     .05
CBEAM         14      14      14      15      0..8660254      .5
                                   .0125     .05           .0125     .05
CBEAM         15      15      15      16      0..8660254      .5
                                   .0125     .05           .0125     .05
CBEAM         16      16      16      17      0..8660254      .5
                                   .0125     .05           .0125     .05
CBEAM         17      17      17      18      0..8660254      .5
                                   .0125     .05           .0125     .05
CBEAM         18      18      18      19      0..8660254      .5
                                   .0125     .05           .0125     .05
CBEAM         19      19      19      20      0..8660254      .5
                                   .0125     .05           .0125     .05
CBEAM         20      20      20      21      0..8660254      .5
                                   .0125     .05           .0125     .05
$ ... 60 like lines cut
$PROPERTIES
PBEAM          1       11.5625-45.086-10 8.138-9        1.7142-9.4390625
+
              NO      1.1.5314-44.886-107.8174-9        1.6466-9.4390625
        .8333333.8333333
                                           .0125     .05
PBEAM          2       11.5314-44.886-107.8174-9        1.6466-9.4390625
+
              NO      1.1.5006-44.691-107.5063-9        1.5811-9.4390625
        .8333333.8333333
                                           .0125     .05
PBEAM          3       11.5006-44.691-107.5063-9        1.5811-9.4390625
+
              NO      1.1.4702-44.503-107.2045-9        1.5175-9.4390625
        .8333333.8333333
                                           .0125     .05
PBEAM          4       11.4702-44.503-107.2045-9        1.5175-9.4390625
+
              NO      1. .000144 4.32-10 6.912-9        1.4559-9.4390625
        .8333333.8333333
                                           .0125     .05
PBEAM          5       1 .000144 4.32-10 6.912-9        1.4559-9.4390625
+
              NO      1.1.4102-44.143-106.6285-9        1.3962-9.4390625
        .8333333.8333333
                                           .0125     .05
PBEAM          6       11.4102-44.143-106.6285-9        1.3962-9.4390625
+
              NO      1.1.3806-43.971-106.3538-9        1.3383-9.4390625
        .8333333.8333333
                                           .0125     .05
PBEAM          7       11.3806-43.971-106.3538-9        1.3383-9.4390625
+
              NO      1.1.3514-43.805-106.0877-9        1.2823-9.4390625
        .8333333.8333333
                                           .0125     .05
PBEAM          8       11.3514-43.805-106.0877-9        1.2823-9.4390625
+
              NO      1.1.3225-43.644-10  5.83-9         1.228-9.4390625
        .8333333.8333333
                                           .0125     .05
PBEAM          9       11.3225-43.644-10  5.83-9         1.228-9.4390625
+
              NO      1.1.2939-43.488-105.5806-9        1.1755-9.4390625
        .8333333.8333333
                                           .0125     .05
PBEAM         10       11.2939-43.488-105.5806-9        1.1755-9.4390625
+
              NO      1.1.2656-43.337-105.3394-9        1.1247-9.4390625
        .8333333.8333333
                                           .0125     .05
PBEAM         11       11.2656-43.337-105.3394-9        1.1247-9.4390625
+
              NO      1.1.2377-43.191-10 5.106-9        1.0755-9.4390625
        .8333333.8333333
                                           .0125     .05
PBEAM         12       11.2377-43.191-10 5.106-9        1.0755-9.4390625
+
              NO      1. .000121 3.05-104.8803-9         1.028-9.4390625
        .8333333.8333333
                                           .0125     .05
PBEAM         13       1 .000121 3.05-104.8803-9         1.028-9.4390625
+
              NO      1.1.1827-42.914-104.6623-9         9.82-10.4390625
        .8333333.8333333
                                           .0125     .05
PBEAM         14       11.1827-42.914-104.6623-9         9.82-10.4390625
+
              NO      1.1.1556-42.782-104.4516-9        9.377-10.4390625
        .8333333.8333333
                                           .0125     .05
PBEAM         15       11.1556-42.782-104.4516-9        9.377-10.4390625
+
              NO      1.1.1289-42.655-104.2481-9        8.948-10.4390625
        .8333333.8333333
                                           .0125     .05
PBEAM         16       11.1289-42.655-104.2481-9        8.948-10.4390625
+
              NO      1.1.1025-42.532-104.0517-9        8.534-10.4390625
        .8333333.8333333
                                           .0125     .05
PBEAM         17       11.1025-42.532-104.0517-9        8.534-10.4390625
+
              NO      1.1.0764-42.414-103.8622-9        8.135-10.4390625
        .8333333.8333333
                                           .0125     .05
PBEAM         18       11.0764-42.414-103.8622-9        8.135-10.4390625
+
              NO      1.1.0506-4  2.3-103.6794-9         7.75-10.4390625
        .8333333.8333333
                                           .0125     .05
PBEAM         19       11.0506-4  2.3-103.6794-9         7.75-10.4390625
+
              NO      1.1.0252-42.189-103.5032-9        7.379-10.4390625
        .8333333.8333333
                                           .0125     .05
PBEAM         20       11.0252-42.189-103.5032-9        7.379-10.4390625
+
              NO      1.   .00012.083-103.3333-9        7.021-10.4390625
        .8333333.8333333
                                           .0125     .05
PBEAM         21       1   .00012.083-103.3333-9        7.021-10.4390625
+
              NO      1.9.7516-51.981-103.1698-9        6.677-10.4390625
        .8333333.8333333
                                           .0125     .05
PBEAM         22       19.7516-51.981-103.1698-9        6.677-10.4390625
+
              NO      1.9.5062-51.883-103.0123-9        6.345-10.4390625
        .8333333.8333333
                                           .0125     .05
PBEAM         23       19.5062-51.883-103.0123-9        6.345-10.4390625
+
              NO      1.9.2641-51.788-102.8608-9        6.026-10.4390625
        .8333333.8333333
                                           .0125     .05
PBEAM         24       19.2641-51.788-102.8608-9        6.026-10.4390625
+
              NO      1. 9.025-51.697-10 2.715-9        5.719-10.4390625
        .8333333.8333333
                                           .0125     .05
PBEAM         25       1 9.025-51.697-10 2.715-9        5.719-10.4390625
+
              NO      1.8.7891-51.609-102.5749-9        5.424-10.4390625
        .8333333.8333333
                                           .0125     .05
PBEAM         26       18.7891-51.609-102.5749-9        5.424-10.4390625
+
              NO      1.8.5563-51.525-102.4403-9         5.14-10.4390625
        .8333333.8333333
                                           .0125     .05
PBEAM         27       18.5563-51.525-102.4403-9         5.14-10.4390625
+
              NO      1.8.3266-51.444-102.3111-9        4.868-10.4390625
        .8333333.8333333
                                           .0125     .05
PBEAM         28       18.3266-51.444-102.3111-9        4.868-10.4390625
+
              NO      1. .0000811.367-10 2.187-9        4.607-10.4390625
        .8333333.8333333
                                           .0125     .05
PBEAM         29       1 .0000811.367-10 2.187-9        4.607-10.4390625
+
              NO      1.7.8766-51.293-10 2.068-9        4.356-10.4390625
        .8333333.8333333
                                           .0125     .05
PBEAM         30       17.8766-51.293-10 2.068-9        4.356-10.4390625
+
              NO      1.7.6562-51.221-101.9539-9        4.116-10.4390625
        .8333333.8333333
                                           .0125     .05
PBEAM         31       17.6562-51.221-101.9539-9        4.116-10.4390625
+
              NO      1.7.4391-51.153-101.8447-9        3.886-10.4390625
        .8333333.8333333
                                           .0125     .05
PBEAM         32       17.4391-51.153-101.8447-9        3.886-10.4390625
+
              NO      1. 7.225-51.088-10  1.74-9        3.665-10.4390625
        .8333333.8333333
                                           .0125     .05
PBEAM         33       1 7.225-51.088-10  1.74-9        3.665-10.4390625
+
              NO      1.7.0141-51.025-101.6399-9        3.454-10.4390625
        .8333333.8333333
                                           .0125     .05
PBEAM         34       17.0141-51.025-101.6399-9        3.454-10.4390625
+
              NO      1.6.8063-59.651-111.5442-9        3.253-10.4390625
        .8333333.8333333
                                           .0125     .05
PBEAM         35       16.8063-59.651-111.5442-9        3.253-10.4390625
+
              NO      1.6.6016-59.079-111.4527-9         3.06-10.4390625
        .8333333.8333333
                                           .0125     .05
PBEAM         36       16.6016-59.079-111.4527-9         3.06-10.4390625
+
              NO      1. .0000648.533-111.3653-9        2.876-10.4390625
        .8333333.8333333
                                           .0125     .05
PBEAM         37       1 .0000648.533-111.3653-9        2.876-10.4390625
+
              NO      1.6.2016-58.012-11 1.282-9          2.7-10.4390625
        .8333333.8333333
                                           .0125     .05
PBEAM         38       16.2016-58.012-11 1.282-9          2.7-10.4390625
+
              NO      1.6.0062-57.516-111.2025-9        2.533-10.4390625
        .8333333.8333333
                                           .0125     .05
PBEAM         39       16.0062-57.516-111.2025-9        2.533-10.4390625
+
              NO      1.5.8141-57.042-111.1268-9        2.373-10.4390625
        .8333333.8333333
                                           .0125     .05
PBEAM         40       15.8141-57.042-111.1268-9        2.373-10.4390625
+
              NO      1. 5.625-56.592-111.0547-9        2.222-10.4390625
        .8333333.8333333
                                           .0125     .05
PBEAM         41       1 5.625-56.592-111.0547-9        2.222-10.4390625
+
              NO      1.5.4391-56.163-119.861-10        2.077-10.4390625
        .8333333.8333333
                                           .0125     .05
PBEAM         42       15.4391-56.163-119.861-10        2.077-10.4390625
+
              NO      1.5.2562-55.756-119.209-10         1.94-10.4390625
        .8333333.8333333
                                           .0125     .05
PBEAM         43       15.2562-55.756-119.209-10         1.94-10.4390625
+
              NO      1.5.0766-55.369-11 8.59-10        1.809-10.4390625
        .8333333.8333333
                                           .0125     .05
PBEAM         44       15.0766-55.369-11 8.59-10        1.809-10.4390625
+
              NO      1. .0000495.002-118.003-10        1.686-10.4390625
        .8333333.8333333
                                           .0125     .05
PBEAM         45       1 .0000495.002-118.003-10        1.686-10.4390625
+
              NO      1.4.7266-54.654-117.447-10        1.569-10.4390625
        .8333333.8333333
                                           .0125     .05
PBEAM         46       14.7266-54.654-117.447-10        1.569-10.4390625
+
              NO      1.4.5563-54.325-11 6.92-10        1.458-10.4390625
        .8333333.8333333
                                           .0125     .05
PBEAM         47       14.5563-54.325-11 6.92-10        1.458-10.4390625
+
              NO      1.4.3891-54.013-116.421-10        1.353-10.4390625
        .8333333.8333333
                                           .0125     .05
PBEAM         48       14.3891-54.013-116.421-10        1.353-10.4390625
+
              NO      1. 4.225-53.719-11 5.95-10        1.253-10.4390625
        .8333333.8333333
                                           .0125     .05
PBEAM         49       1 4.225-53.719-11 5.95-10        1.253-10.4390625
+
              NO      1.4.0641-53.441-115.506-10         1.16-10.4390625
        .8333333.8333333
                                           .0125     .05
PBEAM         50       14.0641-53.441-115.506-10         1.16-10.4390625
+
              NO      1.3.9062-53.179-115.086-10        1.071-10.4390625
        .8333333.8333333
                                           .0125     .05
$MATERIALS
$Aluminium 7075
MAT1           1 7.17+10             .33   2810.
$LOADS
FORCE         10      51        112031.3      1.      0.      0.
FORCE         20      51        10.94055      0.      1.      0.
FORCE         30      51        175.0488      0.      0.      1.
MOMENT        40      51        12.09654      1.      0.      0.
MOMENT        50      51        116.6992      0.      1.      0.
MOMENT        60      51        7.293701      0.      0.      1.
$SPCs
SPC1         100  123456       1
ENDDATA
