NASTRAN BARMASS=1
$EXECUTIVE CONTROL DECK
SOL 101
CEND
$CASE CONTROL DECK
DISPLACEMENT = ALL
SPC = 100
STRESS = ALL
TITLE = cbeam_pbeaml_tube_taper_rotation static analysis
SUBCASE 1
    LOAD = 10
    SUBTITLE = static_fx
SUBCASE 2
    LOAD = 20
    SUBTITLE = static_fy
SUBCASE 3
    LOAD = 30
    SUBTITLE = static_fz
SUBCASE 4
    LOAD = 40
    SUBTITLE = static_mx
SUBCASE 5
    LOAD = 50
    SUBTITLE = static_my
SUBCASE 6
    LOAD = 60
    SUBTITLE = static_mz
BEGIN BULK
$PARAMS
PARAM   COUPMASS       1
PARAM       POST       1
$NODES
GRID           1              0.      0.      0.
GRID           2        .0333333      0.      0.
GRID           3        .0666667      0.      0.
GRID           4              .1      0.      0.
GRID           5        .1333333      0.      0.
GRID           6        .1666667      0.      0.
GRID           7              .2      0.      0.
GRID           8        .2333333      0.      0.
GRID           9        .2666667      0.      0.
GRID          10              .3      0.      0.
GRID          11        .3333333      0.      0.
GRID          12        .3666667      0.      0.
GRID          13              .4      0.      0.
GRID          14        .4333333      0.      0.
GRID          15        .4666667      0.      0.
GRID          16              .5      0.      0.
GRID          17        .5333333      0.      0.
GRID          18        .5666667      0.      0.
GRID          19              .6      0.      0.
GRID          20        .6333333      0.      0.
$ ... 11 like lines cut
$ELEMENTS
CBEAM          1       1       1       2      0..8660254      .5
CBEAM          2       2       2       3      0..8660254      .5
CBEAM          3       3       3       4      0..8660254      .5
CBEAM          4       4       4       5      0..8660254      .5
CBEAM          5       5       5       6      0..8660254      .5
CBEAM          6       6       6       7      0..8660254      .5
CBEAM          7       7       7       8      0..8660254      .5
CBEAM          8       8       8       9      0..8660254      .5
CBEAM          9       9       9      10      0..8660254      .5
CBEAM         10      10      10      11      0..8660254      .5
CBEAM         11      11      11      12      0..8660254      .5
CBEAM         12      12      12      13      0..8660254      .5
CBEAM         13      13      13      14      0..8660254      .5
CBEAM         14      14      14      15      0..8660254      .5
CBEAM         15      15      15      16      0..8660254      .5
CBEAM         16      16      16      17      0..8660254      .5
CBEAM         17      17      17      18      0..8660254      .5
CBEAM         18      18      18      19      0..8660254      .5
CBEAM         19      19      19      20      0..8660254      .5
CBEAM         20      20      20      21      0..8660254      .5
$ ... 10 like lines cut
$PROPERTIES
PBEAML         1       1            TUBE
              .1     .09      0.     YES      1..0983333   .0885      0.
PBEAML         2       1            TUBE
        .0983333   .0885      0.     YES      1..0966667    .087      0.
PBEAML         3       1            TUBE
        .0966667    .087      0.     YES      1.    .095   .0855      0.
PBEAML         4       1            TUBE
            .095   .0855      0.     YES      1..0933333    .084      0.
PBEAML         5       1            TUBE
        .0933333    .084      0.     YES      1..0916667   .0825      0.
PBEAML         6       1            TUBE
        .0916667   .0825      0.     YES      1.     .09    .081      0.
PBEAML         7       1            TUBE
             .09    .081      0.     YES      1..0883333   .0795      0.
PBEAML         8       1            TUBE
        .0883333   .0795      0.     YES      1..0866667    .078      0.
PBEAML         9       1            TUBE
        .0866667    .078      0.     YES      1.    .085   .0765      0.
PBEAML        10       1            TUBE
            .085   .0765      0.     YES      1..0833333    .075      0.
PBEAML        11       1            TUBE
        .0833333    .075      0.     YES      1..0816667   .0735      0.
PBEAML        12       1            TUBE
        .0816667   .0735      0.     YES      1.     .08    .072      0.
PBEAML        13       1            TUBE
             .08    .072      0.     YES      1..0783333   .0705      0.
PBEAML        14       1            TUBE
        .0783333   .0705      0.     YES      1..0766667    .069      0.
PBEAML        15       1            TUBE
        .0766667    .069      0.     YES      1.    .075   .0675      0.
PBEAML        16       1            TUBE
            .075   .0675      0.     YES      1..0733333    .066      0.
PBEAML        17       1            TUBE
        .0733333    .066      0.     YES      1..0716667   .0645      0.
PBEAML        18       1            TUBE
        .0716667   .0645      0.     YES      1.     .07    .063      0.
PBEAML        19       1            TUBE
             .07    .063      0.     YES      1..0683333   .0615      0.
PBEAML        20       1            TUBE
        .0683333   .0615      0.     YES      1..0666667     .06      0.
$ ... 20 like lines cut
$MATERIALS
$Aluminium 7075
MAT1           1 7.17+10             .33   2810.
$LOADS
FORCE         10      31          10000.      1.      0.      0.
FORCE         20      31          10000.      0.      1.      0.
FORCE         30      31          10000.      0.      0.      1.
MOMENT        40      31           1000.      1.      0.      0.
MOMENT        50      31           1000.      0.      1.      0.
MOMENT        60      31           1000.      0.      0.      1.
$SPCs
SPC1         100  123456       1
ENDDATA
