$EXECUTIVE CONTROL DECK
SOL 101
CEND
$CASE CONTROL DECK
DISPLACEMENT(PLOT) = ALL
ECHO = NONE
FORCE(PLOT,CORNER) = ALL
OLOAD(PLOT) = ALL
SPC = 1
SPCFORCES(PLOT) = ALL
STRESS(PLOT,CORNER) = ALL
TITLE = TACS Analysis Set
SUBCASE 1
    ANALYSIS = STATICS
    LOAD = 1
    SUBTITLE = I_Beam
BEGIN BULK
$NODES
GRID*                  1                0.0000000000D+000.0000000000D+00
*       0.0000000000D+00                                                
GRID*                  2                1.0000000000D+000.0000000000D+00
*       0.0000000000D+00                                                
GRID*                  3                2.0000000000D+000.0000000000D+00
*       0.0000000000D+00                                                
GRID*                  4                3.0000000000D+000.0000000000D+00
*       0.0000000000D+00                                                
GRID*                  5                4.0000000000D+000.0000000000D+00
*       0.0000000000D+00                                                
GRID*                  6                5.0000000000D+000.0000000000D+00
*       0.0000000000D+00                                                
GRID*                  7                6.0000000000D+000.0000000000D+00
*       0.0000000000D+00                                                
GRID*                  8                7.0000000000D+000.0000000000D+00
*       0.0000000000D+00                                                
GRID*                  9                8.0000000000D+000.0000000000D+00
*       0.0000000000D+00                                                
GRID*                 10                9.0000000000D+000.0000000000D+00
*       0.0000000000D+00                                                
GRID*                 11                1.0000000000D+010.0000000000D+00
*       0.0000000000D+00                                                
GRID*                 12                1.0000000000D+012.0000000000D-01
*       0.0000000000D+00                                                
GRID*                 13                1.0000000000D+014.0000000000D-01
*       0.0000000000D+00                                                
GRID*                 14                1.0000000000D+016.0000000000D-01
*       0.0000000000D+00                                                
GRID*                 15                1.0000000000D+018.0000000000D-01
*       0.0000000000D+00                                                
GRID*                 16                1.0000000000D+011.0000000000D+00
*       0.0000000000D+00                                                
GRID*                 17                9.0000000000D+001.0000000000D+00
*       0.0000000000D+00                                                
GRID*                 18                8.0000000000D+001.0000000000D+00
*       0.0000000000D+00                                                
GRID*                 19                7.0000000000D+001.0000000000D+00
*       0.0000000000D+00                                                
GRID*                 20                6.0000000000D+001.0000000000D+00
*       0.0000000000D+00                                                
$ ... 94 like lines cut
$ELEMENTS
CQUAD4*                1               1               1               2
*                     31              30               1                
CQUAD4*                2               1               2               3
*                     32              31               1                
CQUAD4*                3               1               3               4
*                     33              32               1                
CQUAD4*                4               1               4               5
*                     34              33               1                
CQUAD4*                5               1               5               6
*                     35              34               1                
CQUAD4*                6               1               6               7
*                     36              35               1                
CQUAD4*                7               1               7               8
*                     37              36               1                
CQUAD4*                8               1               8               9
*                     38              37               1                
CQUAD4*                9               1               9              10
*                     39              38               1                
CQUAD4*               10               1              10              11
*                     12              39               1                
CQUAD4*               11               1              30              31
*                     40              29               1                
CQUAD4*               12               1              31              32
*                     41              40               1                
CQUAD4*               13               1              32              33
*                     42              41               1                
CQUAD4*               14               1              33              34
*                     43              42               1                
CQUAD4*               15               1              34              35
*                     44              43               1                
CQUAD4*               16               1              35              36
*                     45              44               1                
CQUAD4*               17               1              36              37
*                     46              45               1                
CQUAD4*               18               1              37              38
*                     47              46               1                
CQUAD4*               19               1              38              39
*                     48              47               1                
CQUAD4*               20               1              39              12
*                     13              48               1                
$ ... 60 like lines cut
CROD          51       2      16      17
CROD          52       2      17      18
CROD          53       2      18      19
CROD          54       2      19      20
CROD          55       2      20      21
CROD          56       2      21      22
CROD          57       2      22      23
CROD          58       2      23      24
CROD          59       2      24      25
CROD          60       2      25      26
CROD          61       2       1       2
CROD          62       2       2       3
CROD          63       2       3       4
CROD          64       2       4       5
CROD          65       2       5       6
CROD          66       2       6       7
CROD          67       2       7       8
CROD          68       2       8       9
CROD          69       2       9      10
CROD          70       2      10      11
$PROPERTIES
$ Femap Property 1 : Web
PSHELL*                1               1             .01               1
*                                      1
$$ Femap Property 2 : Flange
PROD*                  2               2            .005
*
$MATERIALS
MAT1*                  1    70000000000.                              .3
*                  2700.
*             270000000.
*
MAT1*                  2    70000000000.                              .3
*                  2700.
*             270000000.
*
$RIGID ELEMENTS
RBE3*                 71                              89          123456
*                     1.          123456              16              15
*                     14              13              12              11
*
$LOADS
FORCE*                 1              15                1.0000000000D+00
*       0.0000000000D+00-1.224689186D-060.0000000000D+00
FORCE*                 1              20                1.0000000000D+00
*       0.0000000000D+00-1.004256774D-060.0000000000D+00
FORCE*                 1              64                1.0000000000D+00
*       0.0000000000D+00-1.742897439D-060.0000000000D+00
FORCE*                 1              65                1.0000000000D+00
*       0.0000000000D+00-1.721302397D-060.0000000000D+00
FORCE*                 1              89                1.0000000000D+00
*       0.0000000000D+001.0000000000D+060.0000000000D+00
$SPCs
$$ Femap Constraint Set 1 : Clamp
SPC1           1  123456       1
SPC1           1  123456      26
SPC1           1  123456      27
SPC1           1  123456      28
SPC1           1  123456      29
SPC1           1  123456      30
$COORDS
CORD2R*                1                0.0000000000D+000.0000000000D+00
*       0.0000000000D+000.0000000000D+006.3708039904D-017.7079735674D-01
*       1.0000000000D+000.0000000000D+000.0000000000D+00
*
ENDDATA
