INIT MASTER(S)
NASTRAN SYSTEM(442)=-1,SYSTEM(319)=1
ID Slotdone,FEMAP
SOL SESTATIC
CEND
  TITLE = Simcenter Nastran Static Analysis Set
  ECHO = NONE
  DISPLACEMENT(PLOT) = ALL
  SPCFORCE(PLOT) = ALL
  OLOAD(PLOT) = ALL
  FORCE(PLOT,CORNER) = ALL
  STRESS(PLOT,CORNER) = ALL
  SPC = 1
  LOAD = 1
BEGIN BULK
$ ***************************************************************************
$   Written by : Femap
$   Version    : 2021.1.0
$   Translator : Simcenter Nastran
$   From Model : C:\EngApps\Siemens\Femap 2021.1\Examples\Slotdone.modfem
$   Date       : Thu Sep 16 09:10:56 2021
$   Output To  : C:\EngApps\Siemens\Femap 2021.1\Examples\
$ ***************************************************************************
$
PARAM,PRGPST,YES
PARAM,POST,-1
PARAM,OGEOM,NO
PARAM,AUTOSPC,YES
PARAM,K6ROT,100.
PARAM,GRDPNT,0
CORD2C         1       0      0.      0.      0.      0.      0.      1.+FEMAPC1
+FEMAPC1      1.      0.      1.        
CORD2S         2       0      0.      0.      0.      0.      0.      1.+FEMAPC2
+FEMAPC2      1.      0.      1.        
$ Femap Load Set 1 : Untitled
FORCE          1    5980       0      1.-8.33333      0.      0.
FORCE          1    5983       0      1.-8.33333      0.      0.
FORCE          1    5986       0      1.-8.33333      0.      0.
FORCE          1    5989       0      1.-16.6667      0.      0.
FORCE          1    5990       0      1.-16.6667      0.      0.
FORCE          1    5991       0      1.-16.6667      0.      0.
FORCE          1    5993       0      1.-8.33333      0.      0.
FORCE          1    5996       0      1.-16.6667      0.      0.
FORCE          1    5998       0      1.-8.33333      0.      0.
FORCE          1    6001       0      1.-16.6667      0.      0.
FORCE          1    6002       0      1.-16.6667      0.      0.
FORCE          1    6003       0      1.-16.6667      0.      0.
FORCE          1    6006       0      1.-8.33333      0.      0.
FORCE          1    6009       0      1.-16.6667      0.      0.
FORCE          1    6012       0      1.-8.33333      0.      0.
FORCE          1    6015       0      1.-16.6667      0.      0.
FORCE          1    6016       0      1.-16.6667      0.      0.
FORCE          1    6017       0      1.-16.6667      0.      0.
FORCE          1    6020       0      1.-8.33333      0.      0.
FORCE          1    6023       0      1.-16.6667      0.      0.
$ ... 52 like lines cut
$ Femap Constraint Set 1 : Untitled
SPC1           1  123456     286
SPC1           1  123456     287
SPC1           1  123456     288
SPC1           1  123456     289
SPC1           1  123456     290
SPC1           1  123456     291
SPC1           1  123456     292
SPC1           1  123456     293
SPC1           1  123456     294
SPC1           1  123456     295
SPC1           1  123456     296
SPC1           1  123456     297
SPC1           1  123456     298
SPC1           1  123456     299
SPC1           1  123456     300
SPC1           1  123456     301
SPC1           1  123456     302
SPC1           1  123456     303
SPC1           1  123456     304
SPC1           1  123456     305
$ ... 380 like lines cut
$ Femap Property 1 : Solid
PSOLID         1       1       0        
$ Femap Material 1 : AISI 4340 Steel
MAT1           1   2.9+7             .327.3315-4   6.6-6     70.        +       
+        215000. 240000. 156000.
MAT4           14.8611-4   38.647.3315-4                        
GRID           1       0     25.     95.      0.       0
GRID           2       025.0739790.40113      0.       0
GRID           3       0 25.295885.80702      0.       0
GRID           4       025.6652681.22242      0.       0
GRID           5       026.1819776.65207      0.       0
GRID           6       026.8453972.10071      0.       0
GRID           7       027.6548567.57303      0.       0
GRID           8       028.6094963.07373      0.       0
GRID           9       029.7083458.60746      0.       0
GRID          10       030.9502654.17883      0.       0
GRID          11       032.3339549.79244      0.       0
GRID          12       0  33.85845.45282      0.       0
GRID          13       035.5208241.16445      0.       0
GRID          14       037.3206936.93178      0.       0
GRID          15       039.2557632.75918      0.       0
GRID          16       041.3240128.65097      0.       0
GRID          17       043.52332 24.6114      0.       0
GRID          18       043.52332 24.6114     -5.       0
GRID          19       043.52332 24.6114    -10.       0
GRID          20       041.3240128.65097    -10.       0
$ ... 25122 like lines cut
CTETRA      4529       1    2255    2256    2257    2258   18684   18697+       
+          18685   18686   18698   18707
CTETRA      4530       1    1064    2255    2256    2257   10921   18684+       
+          10922   10923   18685   18697
CTETRA      4531       1    2259    2260    2261    2255   18720   18728+       
+          18721   18687   18688   18689
CTETRA      4532       1    2258    2255    2256    2262   18686   18684+       
+          18698   18714   18690   18699
CTETRA      4533       1     840    2263     841    2264    9204    9220+       
+           9197    9205   18750    9221
CTETRA      4534       1    2263     841    2264    2258    9220    9221+       
+          18750   18715    9219   18716
CTETRA      4535       1    2258    2259    2265    2266   18712   18723+       
+          18717   18718   18724   18765
CTETRA      4536       1    2267    2268    1678    2269   18784   14869+       
+          14868   18785   18790   14870
CTETRA      4537       1    2268    2270    1453    2040   18791   13347+       
+          13346   17321   17322   13344
CTETRA      4538       1    2268    2271    2269    1506   18792   18796+       
+          18790   13751   13753   13752
CTETRA      4539       1    2268    2272    2273    2271   18793   18814+       
+          18794   18792   18808   18809
CTETRA      4540       1    2268    2271    1506    1482   18792   13753+       
+          13751   13550   13551   13546
CTETRA      4541       1    2274    2275    2276    2277   18824   18831+       
+          18825   18826   18832   18838
CTETRA      4542       1    2274    2278    2279    2280   18827   18855+       
+          18828   18829   18856   18859
CTETRA      4543       1    2274    2082    2275    2279   17671   17672+       
+          18824   18828   17673   18833
CTETRA      4544       1    2274    2279    2121    2082   18828   17985+       
+          17984   17671   17673   17669
CTETRA      4545       1    2274    2277    2081    2281   18826   17663+       
+          17662   18830   18847   17664
CTETRA      4546       1    2274    2281    2081    2121   18830   17664+       
+          17662   17984   17986   17657
CTETRA      4547       1    2282    2283    2284    2285   18875   18883+       
+          18876   18877   18884   18891
CTETRA      4548       1    1032    2282    2286    1264   10612   18878+       
+          10615   10611   12378   12379
$ ... 30678 like lines cut
ENDDATA 153199f4
