INIT MASTER(S)
NASTRAN SYSTEM(442)=-1,SYSTEM(319)=1
ID FEMAP,FEMAP
SOL SESTATIC
CEND
  TITLE = Simcenter Nastran Static Analysis Set
  ECHO = NONE
  DISPLACEMENT(PLOT) = ALL
  SPCFORCE(PLOT) = ALL
  OLOAD(PLOT) = ALL
  FORCE(PLOT,CORNER) = ALL
  STRESS(PLOT,CORNER) = ALL
BEGIN BULK
$ ***************************************************************************
$   Written by : Femap
$   Version    : 2021.1.0
$   Translator : Simcenter Nastran
$   From Model : 
$   Date       : Sat Oct  9 08:33:08 2021
$   Output To  : C:\Users\trbrooks\AppData\Local\Temp\1\
$ ***************************************************************************
$
PARAM,PRGPST,YES
PARAM,POST,-1
PARAM,OGEOM,NO
PARAM,AUTOSPC,YES
PARAM,K6ROT,100.
PARAM,GRDPNT,0
CORD2C         1       0      0.      0.      0.      0.      0.      1.+FEMAPC1
+FEMAPC1      1.      0.      1.        
CORD2S         2       0      0.      0.      0.      0.      0.      1.+FEMAPC2
+FEMAPC2      1.      0.      1.        
$ Femap Property 1 : Plate
PSHELL         1       1      .1       1               1              0.
$ Femap Material 1 : 2024-T351 Al Plate: t = 0.25 to 0.5 inches
MAT1           1  1.07+7             .332.5906-4 1.255-5     70.        +       
+         42000.  40000.  38000.
MAT4           1.0016435  83.0762.5906-4                        
GRID           1       1      1.      0.      0.       0
GRID           2       1      .9      0.      0.       0
GRID           3       1      .8      0.      0.       0
GRID           4       1      .7      0.      0.       0
GRID           5       1      .6      0.      0.       0
GRID           6       1      .5      0.      0.       0
GRID           7       1      .4      0.      0.       0
GRID           8       1      .3      0.      0.       0
GRID           9       1      .2      0.      0.       0
GRID          10       1      .1      0.      0.       0
GRID          11       1      0.      0.      0.       0
GRID          12       1      .1    180.      0.       0
GRID          13       1      .2    180.      0.       0
GRID          14       1      .3    180.      0.       0
GRID          15       1      .4    180.      0.       0
GRID          16       1      .5    180.      0.       0
GRID          17       1      .6    180.      0.       0
GRID          18       1      .7    180.      0.       0
GRID          19       1      .8    180.      0.       0
GRID          20       1      .9    180.      0.       0
$ ... 387 like lines cut
CQUAD4         1       1       3       4      53      52                
CQUAD4         2       1       4       5      54      53                
CQUAD4         3       1       5       6      55      54                
CQUAD4         4       1       6       7      56      55                
CQUAD4         5       1       7       8      57      56                
CQUAD4         6       1       8       9      58      57                
CQUAD4         7       1       9      10      59      58                
CQUAD4         8       1      10      11      60      59                
CQUAD4         9       1      11      12      61      60                
CQUAD4        10       1      12      13      62      61                
CQUAD4        11       1      13      14      63      62                
CQUAD4        12       1      14      15      64      63                
CQUAD4        13       1      15      16      65      64                
CQUAD4        14       1      16      17      66      65                
CQUAD4        15       1      17      18      67      66                
CQUAD4        16       1      18      19      68      67                
CQUAD4        17       1      19      20      69      68                
CQUAD4        18       1      21      22      69      20                
CQUAD4        19       1      22      23      70      69                
CQUAD4        20       1      24      25      72      71                
$ ... 144 like lines cut
CTRIA3       165       1     140     127     128                        
CQUAD4       166       1     199     198     126     140                
CQUAD4       167       1     198     197     125     126                
CQUAD4       168       1     197     196     124     125                
CQUAD4       169       1     196     195     123     124                
CQUAD4       170       1     195     194     122     123                
CQUAD4       171       1     190     138     139     185                
CQUAD4       172       1     185     186     191     190                
CQUAD4       173       1     186     187     192     191                
CQUAD4       174       1     187     188     193     192                
CQUAD4       175       1     188     189     194     193                
CQUAD4       176       1     189     121     122     194                
CQUAD4       177       1     185     139      99     146                
CQUAD4       178       1     146     145     186     185                
CQUAD4       179       1     145     144     187     186                
CQUAD4       180       1     142     120     121     189                
CQUAD4       181       1     189     188     143     142                
CQUAD4       182       1     188     187     144     143                
CQUAD4       183       1      53      54     114     141                
CQUAD4       184       1     141     113      52      53                
CQUAD4       185       1      67      68     127     140                
$ ... 167 like lines cut
CTRIA3       353       1     334     320     321                        
CQUAD4       354       1     392     391     319     334                
CQUAD4       355       1     391     390     318     319                
CQUAD4       356       1     390     389     317     318                
CQUAD4       357       1     389     388     316     317                
CQUAD4       358       1     388     387     315     316                
CQUAD4       359       1     383     331     332     378                
CQUAD4       360       1     378     379     384     383                
CQUAD4       361       1     379     380     385     384                
CQUAD4       362       1     380     381     386     385                
CQUAD4       363       1     381     382     387     386                
CQUAD4       364       1     382     314     315     387                
CQUAD4       365       1     378     332     292     339                
CQUAD4       366       1     339     338     379     378                
CQUAD4       367       1     338     337     380     379                
CQUAD4       368       1     335     313     314     382                
CQUAD4       369       1     382     381     336     335                
CQUAD4       370       1     381     380     337     336                
CQUAD4       371       1     260     261     320     334                
CQUAD4       372       1     334     319     259     260                
CQUAD4       373       1     246     247     307     333                
CQUAD4       374       1     333     306     245     246                
CQUAD4       375       1     321     264     265     322                
CQUAD4       376       1     304     288     289     305                
ENDDATA 3a69e297
