$EXECUTIVE CONTROL DECK
SOL 101
CEND
$CASE CONTROL DECK
DISPLACEMENT(PLOT) = ALL
ECHO = NONE
FORCE(PLOT,CORNER) = ALL
OLOAD(PLOT) = ALL
SPC = 1
SPCFORCES(PLOT) = ALL
STRESS(PLOT,CORNER) = ALL
TITLE = TACS Analysis Set
SUBCASE 1
    ANALYSIS = STATICS
    LOAD = 1
    SUBTITLE = tip_shear
BEGIN BULK
$NODES
GRID*                  1                0.0000000000D+000.0000000000D+00
*       0.0000000000D+00                                                
GRID*                  2                1.0000000000D-020.0000000000D+00
*       0.0000000000D+00                                                
GRID*                  3                2.0000000000D-020.0000000000D+00
*       0.0000000000D+00                                                
GRID*                  4                3.0000000000D-020.0000000000D+00
*       0.0000000000D+00                                                
GRID*                  5                4.0000000000D-020.0000000000D+00
*       0.0000000000D+00                                                
GRID*                  6                5.0000000000D-020.0000000000D+00
*       0.0000000000D+00                                                
GRID*                  7                6.0000000000D-020.0000000000D+00
*       0.0000000000D+00                                                
GRID*                  8                7.0000000000D-020.0000000000D+00
*       0.0000000000D+00                                                
GRID*                  9                8.0000000000D-020.0000000000D+00
*       0.0000000000D+00                                                
GRID*                 10                9.0000000000D-020.0000000000D+00
*       0.0000000000D+00                                                
GRID*                 11                1.0000000000D-010.0000000000D+00
*       0.0000000000D+00                                                
GRID*                 12                1.1000000000D-010.0000000000D+00
*       0.0000000000D+00                                                
GRID*                 13                1.2000000000D-010.0000000000D+00
*       0.0000000000D+00                                                
GRID*                 14                1.3000000000D-010.0000000000D+00
*       0.0000000000D+00                                                
GRID*                 15                1.4000000000D-010.0000000000D+00
*       0.0000000000D+00                                                
GRID*                 16                1.5000000000D-010.0000000000D+00
*       0.0000000000D+00                                                
GRID*                 17                1.6000000000D-010.0000000000D+00
*       0.0000000000D+00                                                
GRID*                 18                1.7000000000D-010.0000000000D+00
*       0.0000000000D+00                                                
GRID*                 19                1.8000000000D-010.0000000000D+00
*       0.0000000000D+00                                                
GRID*                 20                1.9000000000D-010.0000000000D+00
*       0.0000000000D+00                                                
$ ... 162 like lines cut
$ELEMENTS
$ELEMENTS
CBAR*                  1               1               1               2
*                     0.              1.              0.
CBAR*                  2               2               2               3
*                     0.              1.              0.
CBAR*                  3               3               3               4
*                     0.              1.              0.
CBAR*                  4               4               4               5
*                     0.              1.              0.
CBAR*                  5               5               5               6
*                     0.              1.              0.
CBAR*                  6               6               6               7
*                     0.              1.              0.
CBAR*                  7               7               7               8
*                     0.              1.              0.
CBAR*                  8               8               8               9
*                     0.              1.              0.
CBAR*                  9               9               9              10
*                     0.              1.              0.
CBAR*                 10              10              10              11
*                     0.              1.              0.
CBAR*                 11              11              11              12
*                     0.              1.              0.
CBAR*                 12              12              12              13
*                     0.              1.              0.
CBAR*                 13              13              13              14
*                     0.              1.              0.
CBAR*                 14              14              14              15
*                     0.              1.              0.
CBAR*                 15              15              15              16
*                     0.              1.              0.
CBAR*                 16              16              16              17
*                     0.              1.              0.
CBAR*                 17              17              17              18
*                     0.              1.              0.
CBAR*                 18              18              18              19
*                     0.              1.              0.
CBAR*                 19              19              19              20
*                     0.              1.              0.
CBAR*                 20              20              20              21
*                     0.              1.              0.
$ ... 160 like lines cut
$PROPERTIES
PBARL*                 1               1                             BAR
*
*                    .05 .01856055776468              0.
*
PBARL*                 2               2                             BAR
*
*                    .05.018469617291823              0.
*
PBARL*                 3               3                             BAR
*
*                    .05.018374673523979              0.
*
PBARL*                 4               4                             BAR
*
*                    .05.018279045218319              0.
*
PBARL*                 5               5                             BAR
*
*                    .05.018185968068983              0.
*
PBARL*                 6               6                             BAR
*
*                    .05.018093859692539              0.
*
PBARL*                 7               7                             BAR
*
*                    .05 .01799848354943              0.
*
PBARL*                 8               8                             BAR
*
*                    .05.017900696705903              0.
*
PBARL*                 9               9                             BAR
*
*                    .05.017804856408701              0.
*
PBARL*                10              10                             BAR
*
*                    .05 .01770691543175              0.
*
PBARL*                11              11                             BAR
*
*                    .05.017610135050887              0.
*
PBARL*                12              12                             BAR
*
*                    .05.017511661865785              0.
*
PBARL*                13              13                             BAR
*
*                    .05.017411928705705              0.
*
PBARL*                14              14                             BAR
*
*                    .05.017312173153402              0.
*
PBARL*                15              15                             BAR
*
*                    .05.017210257300857              0.
*
PBARL*                16              16                             BAR
*
*                    .05.017112521541398              0.
*
PBARL*                17              17                             BAR
*
*                    .05.017010417048674              0.
*
PBARL*                18              18                             BAR
*
*                    .05.016912673835402              0.
*
PBARL*                19              19                             BAR
*
*                    .05.016806787429309              0.
*
PBARL*                20              20                             BAR
*
*                    .05.016703664317424              0.
*
PBARL*                21              21                             BAR
*
*                    .05.016605804791351              0.
*
PBARL*                22              22                             BAR
*
*                    .05.016496450673685              0.
*
PBARL*                23              23                             BAR
*
*                    .05.016394672719443              0.
*
PBARL*                24              24                             BAR
*
*                    .05.016285085044932              0.
*
PBARL*                25              25                             BAR
*
*                    .05.016179116716644              0.
*
PBARL*                26              26                             BAR
*
*                    .05.016073328154633              0.
*
PBARL*                27              27                             BAR
*
*                    .05.015967507585346              0.
*
PBARL*                28              28                             BAR
*
*                    .05.015857944004617              0.
*
PBARL*                29              29                             BAR
*
*                    .05 .01574848919207              0.
*
PBARL*                30              30                             BAR
*
*                    .05.015638398296407              0.
*
PBARL*                31              31                             BAR
*
*                    .05.015528223516215              0.
*
PBARL*                32              32                             BAR
*
*                    .05.015414582653047              0.
*
PBARL*                33              33                             BAR
*
*                    .05.015302410781233              0.
*
PBARL*                34              34                             BAR
*
*                    .05.015189859080616              0.
*
PBARL*                35              35                             BAR
*
*                    .05.015074868892005              0.
*
PBARL*                36              36                             BAR
*
*                    .05.014961353509926              0.
*
PBARL*                37              37                             BAR
*
*                    .05.014843592165835              0.
*
PBARL*                38              38                             BAR
*
*                    .05.014728450149844              0.
*
PBARL*                39              39                             BAR
*
*                    .05.014611851489143              0.
*
PBARL*                40              40                             BAR
*
*                    .05.014493163122552              0.
*
PBARL*                41              41                             BAR
*
*                    .05.014373086036825              0.
*
PBARL*                42              42                             BAR
*
*                    .05.014250656468103              0.
*
PBARL*                43              43                             BAR
*
*                    .05.014134153491607              0.
*
PBARL*                44              44                             BAR
*
*                    .05.014007578596192              0.
*
PBARL*                45              45                             BAR
*
*                    .05.013882004071433              0.
*
PBARL*                46              46                             BAR
*
*                    .05.013761009000752              0.
*
PBARL*                47              47                             BAR
*
*                    .05.013634375975861              0.
*
PBARL*                48              48                             BAR
*
*                    .05.013504316086102              0.
*
PBARL*                49              49                             BAR
*
*                    .05.013378025669559              0.
*
PBARL*                50              50                             BAR
*
*                    .05.013245873625742              0.
*
PBARL*                51              51                             BAR
*
*                    .05.013114527040982              0.
*
PBARL*                52              52                             BAR
*
*                    .05.012984050428848              0.
*
PBARL*                53              53                             BAR
*
*                    .05.012848149206005              0.
*
PBARL*                54              54                             BAR
*
*                    .05.012713631888659              0.
*
PBARL*                55              55                             BAR
*
*                    .05.012575518127124              0.
*
PBARL*                56              56                             BAR
*
*                    .05.012436976579055              0.
*
PBARL*                57              57                             BAR
*
*                    .05.012303195661643              0.
*
PBARL*                58              58                             BAR
*
*                    .05.012154843559453              0.
*
PBARL*                59              59                             BAR
*
*                    .05 .01201711606218              0.
*
PBARL*                60              60                             BAR
*
*                    .05.011868758106225              0.
*
PBARL*                61              61                             BAR
*
*                    .05.011723062713046              0.
*
PBARL*                62              62                             BAR
*
*                    .05.011575540521613              0.
*
PBARL*                63              63                             BAR
*
*                    .05.011422092577897              0.
*
PBARL*                64              64                             BAR
*
*                    .05.011270749845214              0.
*
PBARL*                65              65                             BAR
*
*                    .05.011114077629355              0.
*
PBARL*                66              66                             BAR
*
*                    .05.010963460909581              0.
*
PBARL*                67              67                             BAR
*
*                    .05.010796594882055              0.
*
PBARL*                68              68                             BAR
*
*                    .05.010635497077396              0.
*
PBARL*                69              69                             BAR
*
*                    .05.010471626439683              0.
*
PBARL*                70              70                             BAR
*
*                    .05.010306949951661              0.
*
PBARL*                71              71                             BAR
*
*                    .05.010134674597564              0.
*
PBARL*                72              72                             BAR
*
*                    .05.009964956986928              0.
*
PBARL*                73              73                             BAR
*
*                    .05.009791138377499              0.
*
PBARL*                74              74                             BAR
*
*                    .05.009611043905431              0.
*
PBARL*                75              75                             BAR
*
*                    .05.009429962583396              0.
*
PBARL*                76              76                             BAR
*
*                    .05.009244607579112              0.
*
PBARL*                77              77                             BAR
*
*                    .05 .00905387166012              0.
*
PBARL*                78              78                             BAR
*
*                    .05.008863858868519              0.
*
PBARL*                79              79                             BAR
*
*                    .05 .00866276038015              0.
*
PBARL*                80              80                             BAR
*
*                    .05.008458537777482              0.
*
PBARL*                81              81                             BAR
*
*                    .05.008249114599711              0.
*
PBARL*                82              82                             BAR
*
*                    .05.008038170520418              0.
*
PBARL*                83              83                             BAR
*
*                    .05 .00781957751238              0.
*
PBARL*                84              84                             BAR
*
*                    .05.007593138191405              0.
*
PBARL*                85              85                             BAR
*
*                    .05.007362120112455              0.
*
PBARL*                86              86                             BAR
*
*                    .05.007121093887842              0.
*
PBARL*                87              87                             BAR
*
*                    .05.006872075089451              0.
*
PBARL*                88              88                             BAR
*
*                    .05.006613257441171              0.
*
PBARL*                89              89                             BAR
*
*                    .05 .00634470367644              0.
*
PBARL*                90              90                             BAR
*
*                    .05.006065117936556              0.
*
PBARL*                91              91                             BAR
*
*                    .05.005771160511892              0.
*
PBARL*                92              92                             BAR
*
*                    .05.005459682164559              0.
*
PBARL*                93              93                             BAR
*
*                    .05.005131016673687              0.
*
PBARL*                94              94                             BAR
*
*                    .05.004777289131196              0.
*
PBARL*                95              95                             BAR
*
*                    .05.004396451237772              0.
*
PBARL*                96              96                             BAR
*
*                    .05.003979152042601              0.
*
PBARL*                97              97                             BAR
*
*                    .05.003512488888246              0.
*
PBARL*                98              98                             BAR
*
*                    .05.002971683311473              0.
*
PBARL*                99              99                             BAR
*
*                    .05.002306029203444              0.
*
PBARL*               100             100                             BAR
*
*                    .05 .00133674533257              0.
*
$MATERIALS
MAT1*                  1    70000000000.                              0.
*                  2500.
*             350000000.
*
MAT1*                  2    70000000000.                              0.
*                  2500.
*             350000000.
*
MAT1*                  3    70000000000.                              0.
*                  2500.
*             350000000.
*
MAT1*                  4    70000000000.                              0.
*                  2500.
*             350000000.
*
MAT1*                  5    70000000000.                              0.
*                  2500.
*             350000000.
*
MAT1*                  6    70000000000.                              0.
*                  2500.
*             350000000.
*
MAT1*                  7    70000000000.                              0.
*                  2500.
*             350000000.
*
MAT1*                  8    70000000000.                              0.
*                  2500.
*             350000000.
*
MAT1*                  9    70000000000.                              0.
*                  2500.
*             350000000.
*
MAT1*                 10    70000000000.                              0.
*                  2500.
*             350000000.
*
MAT1*                 11    70000000000.                              0.
*                  2500.
*             350000000.
*
MAT1*                 12    70000000000.                              0.
*                  2500.
*             350000000.
*
MAT1*                 13    70000000000.                              0.
*                  2500.
*             350000000.
*
MAT1*                 14    70000000000.                              0.
*                  2500.
*             350000000.
*
MAT1*                 15    70000000000.                              0.
*                  2500.
*             350000000.
*
MAT1*                 16    70000000000.                              0.
*                  2500.
*             350000000.
*
MAT1*                 17    70000000000.                              0.
*                  2500.
*             350000000.
*
MAT1*                 18    70000000000.                              0.
*                  2500.
*             350000000.
*
MAT1*                 19    70000000000.                              0.
*                  2500.
*             350000000.
*
MAT1*                 20    70000000000.                              0.
*                  2500.
*             350000000.
*
MAT1*                 21    70000000000.                              0.
*                  2500.
*             350000000.
*
MAT1*                 22    70000000000.                              0.
*                  2500.
*             350000000.
*
MAT1*                 23    70000000000.                              0.
*                  2500.
*             350000000.
*
MAT1*                 24    70000000000.                              0.
*                  2500.
*             350000000.
*
MAT1*                 25    70000000000.                              0.
*                  2500.
*             350000000.
*
MAT1*                 26    70000000000.                              0.
*                  2500.
*             350000000.
*
MAT1*                 27    70000000000.                              0.
*                  2500.
*             350000000.
*
MAT1*                 28    70000000000.                              0.
*                  2500.
*             350000000.
*
MAT1*                 29    70000000000.                              0.
*                  2500.
*             350000000.
*
MAT1*                 30    70000000000.                              0.
*                  2500.
*             350000000.
*
MAT1*                 31    70000000000.                              0.
*                  2500.
*             350000000.
*
MAT1*                 32    70000000000.                              0.
*                  2500.
*             350000000.
*
MAT1*                 33    70000000000.                              0.
*                  2500.
*             350000000.
*
MAT1*                 34    70000000000.                              0.
*                  2500.
*             350000000.
*
MAT1*                 35    70000000000.                              0.
*                  2500.
*             350000000.
*
MAT1*                 36    70000000000.                              0.
*                  2500.
*             350000000.
*
MAT1*                 37    70000000000.                              0.
*                  2500.
*             350000000.
*
MAT1*                 38    70000000000.                              0.
*                  2500.
*             350000000.
*
MAT1*                 39    70000000000.                              0.
*                  2500.
*             350000000.
*
MAT1*                 40    70000000000.                              0.
*                  2500.
*             350000000.
*
MAT1*                 41    70000000000.                              0.
*                  2500.
*             350000000.
*
MAT1*                 42    70000000000.                              0.
*                  2500.
*             350000000.
*
MAT1*                 43    70000000000.                              0.
*                  2500.
*             350000000.
*
MAT1*                 44    70000000000.                              0.
*                  2500.
*             350000000.
*
MAT1*                 45    70000000000.                              0.
*                  2500.
*             350000000.
*
MAT1*                 46    70000000000.                              0.
*                  2500.
*             350000000.
*
MAT1*                 47    70000000000.                              0.
*                  2500.
*             350000000.
*
MAT1*                 48    70000000000.                              0.
*                  2500.
*             350000000.
*
MAT1*                 49    70000000000.                              0.
*                  2500.
*             350000000.
*
MAT1*                 50    70000000000.                              0.
*                  2500.
*             350000000.
*
MAT1*                 51    70000000000.                              0.
*                  2500.
*             350000000.
*
MAT1*                 52    70000000000.                              0.
*                  2500.
*             350000000.
*
MAT1*                 53    70000000000.                              0.
*                  2500.
*             350000000.
*
MAT1*                 54    70000000000.                              0.
*                  2500.
*             350000000.
*
MAT1*                 55    70000000000.                              0.
*                  2500.
*             350000000.
*
MAT1*                 56    70000000000.                              0.
*                  2500.
*             350000000.
*
MAT1*                 57    70000000000.                              0.
*                  2500.
*             350000000.
*
MAT1*                 58    70000000000.                              0.
*                  2500.
*             350000000.
*
MAT1*                 59    70000000000.                              0.
*                  2500.
*             350000000.
*
MAT1*                 60    70000000000.                              0.
*                  2500.
*             350000000.
*
MAT1*                 61    70000000000.                              0.
*                  2500.
*             350000000.
*
MAT1*                 62    70000000000.                              0.
*                  2500.
*             350000000.
*
MAT1*                 63    70000000000.                              0.
*                  2500.
*             350000000.
*
MAT1*                 64    70000000000.                              0.
*                  2500.
*             350000000.
*
MAT1*                 65    70000000000.                              0.
*                  2500.
*             350000000.
*
MAT1*                 66    70000000000.                              0.
*                  2500.
*             350000000.
*
MAT1*                 67    70000000000.                              0.
*                  2500.
*             350000000.
*
MAT1*                 68    70000000000.                              0.
*                  2500.
*             350000000.
*
MAT1*                 69    70000000000.                              0.
*                  2500.
*             350000000.
*
MAT1*                 70    70000000000.                              0.
*                  2500.
*             350000000.
*
MAT1*                 71    70000000000.                              0.
*                  2500.
*             350000000.
*
MAT1*                 72    70000000000.                              0.
*                  2500.
*             350000000.
*
MAT1*                 73    70000000000.                              0.
*                  2500.
*             350000000.
*
MAT1*                 74    70000000000.                              0.
*                  2500.
*             350000000.
*
MAT1*                 75    70000000000.                              0.
*                  2500.
*             350000000.
*
MAT1*                 76    70000000000.                              0.
*                  2500.
*             350000000.
*
MAT1*                 77    70000000000.                              0.
*                  2500.
*             350000000.
*
MAT1*                 78    70000000000.                              0.
*                  2500.
*             350000000.
*
MAT1*                 79    70000000000.                              0.
*                  2500.
*             350000000.
*
MAT1*                 80    70000000000.                              0.
*                  2500.
*             350000000.
*
MAT1*                 81    70000000000.                              0.
*                  2500.
*             350000000.
*
MAT1*                 82    70000000000.                              0.
*                  2500.
*             350000000.
*
MAT1*                 83    70000000000.                              0.
*                  2500.
*             350000000.
*
MAT1*                 84    70000000000.                              0.
*                  2500.
*             350000000.
*
MAT1*                 85    70000000000.                              0.
*                  2500.
*             350000000.
*
MAT1*                 86    70000000000.                              0.
*                  2500.
*             350000000.
*
MAT1*                 87    70000000000.                              0.
*                  2500.
*             350000000.
*
MAT1*                 88    70000000000.                              0.
*                  2500.
*             350000000.
*
MAT1*                 89    70000000000.                              0.
*                  2500.
*             350000000.
*
MAT1*                 90    70000000000.                              0.
*                  2500.
*             350000000.
*
MAT1*                 91    70000000000.                              0.
*                  2500.
*             350000000.
*
MAT1*                 92    70000000000.                              0.
*                  2500.
*             350000000.
*
MAT1*                 93    70000000000.                              0.
*                  2500.
*             350000000.
*
MAT1*                 94    70000000000.                              0.
*                  2500.
*             350000000.
*
MAT1*                 95    70000000000.                              0.
*                  2500.
*             350000000.
*
MAT1*                 96    70000000000.                              0.
*                  2500.
*             350000000.
*
MAT1*                 97    70000000000.                              0.
*                  2500.
*             350000000.
*
MAT1*                 98    70000000000.                              0.
*                  2500.
*             350000000.
*
MAT1*                 99    70000000000.                              0.
*                  2500.
*             350000000.
*
MAT1*                100    70000000000.                              0.
*                  2500.
*             350000000.
*
$LOADS
FORCE*                 1             101                1.0000000000D+00
*       0.0000000000D+001.0000000000D+030.0000000000D+00
$SPCs
$$SPCs
SPC            1       1  123456      0.
ENDDATA
