INIT MASTER(S)
NASTRAN SYSTEM(442)=-1,SYSTEM(319)=1
ID FEMAP,FEMAP
SOL SESTATIC
CEND
  TITLE = BEAM TEST
  ECHO = NONE
  DISPLACEMENT(PLOT) = ALL
  SPCFORCE(PLOT) = ALL
  OLOAD(PLOT) = ALL
  FORCE(PLOT,CORNER) = ALL
  STRESS(PLOT,CORNER) = ALL
SUBCASE 1
  SUBTITLE = Z-SHEAR
  SPC = 1
  LOAD = 1
SUBCASE 2
  SUBTITLE = Y-SHEAR
  SPC = 1
  LOAD = 2
SUBCASE 3
  SUBTITLE = X-AXIAL
  SPC = 1
  LOAD = 3
SUBCASE 4
  SUBTITLE = X-TORSION
  SPC = 1
  LOAD = 4
BEGIN BULK
$ ***************************************************************************
$   Written by : Femap
$   Version    : 2506.0
$   Translator : Simcenter Nastran
$   From Model : 
$   Date       : Wed Oct  1 10:39:32 2025
$   Output To  : C:\Users\tbrooks\AppData\Local\Temp\
$ ***************************************************************************
$
PARAM,PRGPST,YES
PARAM,POST,-1
PARAM,OGEOM,NO
PARAM,AUTOSPC,YES
PARAM,K6ROT,100.
PARAM,GRDPNT,0
CORD2C         1       0      0.      0.      0.      0.      0.      1.+FEMAPC1
+FEMAPC1      1.      0.      1.        
CORD2S         2       0      0.      0.      0.      0.      0.      1.+FEMAPC2
+FEMAPC2      1.      0.      1.        
$ Femap Load Set 1 : Shear
FORCE          1       6       0      1.      0.      0.      1.
$ Femap Load Set 2 : y-shear
FORCE          2       6       0      1.      0.      1.      0.
$ Femap Load Set 3 : x-axial
FORCE          3       6       0      1.      1.      0.      0.
$ Femap Load Set 4 : x-torsion
MOMENT         4       6       0      1.      1.      0.      0.
$ Femap Constraint Set 1 : Case 1
SPC1           1  123456       1
$ Femap Property 1 : BAR Property (NASTRAN IBeam)
PBARL          1       1 MSCBML0       I                                +       
+             .1     .05     .05     .01     .01     .01      0.
MAT1*                  1            70E6                              .3
*                  2700.              0.              0.                *
*             270000000.
GRID           1       0      0.      0.      0.       0
GRID           2       0      .2      0.      0.       0
GRID           3       0      .4      0.      0.       0
GRID           4       0      .6      0.      0.       0
GRID           5       0      .8      0.      0.       0
GRID           6       0      1.      0.      0.       0
CBAR           1       1       1       2      0.      1.      0.
CBAR           2       1       2       3      0.      1.      0.
CBAR           3       1       3       4      0.      1.      0.
CBAR           4       1       4       5      0.      1.      0.
CBAR           5       1       5       6      0.      1.      0.
ENDDATA 5fbd8c97
