INIT MASTER(S)
NASTRAN SYSTEM(442)=-1,SYSTEM(319)=1
ID FEMAP,FEMAP
SOL SESTATIC
CEND
  TITLE = Simcenter Nastran Static Analysis Set
  ECHO = NONE
  DISPLACEMENT(PLOT) = ALL
  SPCFORCE(PLOT) = ALL
  OLOAD(PLOT) = ALL
  FORCE(PLOT,CORNER) = ALL
  STRESS(PLOT,CORNER) = ALL
  SPC = 1
BEGIN BULK
$ ***************************************************************************
$   Written by : Femap
$   Version    : 2023.1.0
$   Translator : Simcenter Nastran
$   From Model :
$   Date       : Tue May 23 12:54:23 2023
$   Output To  : C:\Users\trbrooks\AppData\Local\Temp\2\
$ ***************************************************************************
$
PARAM,PRGPST,NO
PARAM,POST,-1
PARAM,OGEOM,NO
PARAM,AUTOSPC,YES
PARAM,K6ROT,100.
PARAM,GRDPNT,0
CORD2C         1       0      0.      0.      0.      0.      0.      1.+FEMAPC1
+FEMAPC1      1.      0.      1.
CORD2S         2       0      0.      0.      0.      0.      0.      1.+FEMAPC2
+FEMAPC2      1.      0.      1.
$ Femap Constraint Set 1 : Untitled
SPC1           1  123456       1
SPC1           1  123456      11
SPC1           1  123456      12
$ Femap Property 1 : PLATE Property
PSHELL         1       1      0.       1               1              0.
$ Femap Material 1 : ISOTROPIC Material
MAT1           1   7.+10              .3      0.      0.      0.
GRID           1       0      0.      0.      0.       0
GRID           2       0      .5      0.      0.       0
GRID           3       0      1.      0.      0.       0
GRID           4       0     1.5      0.      0.       0
GRID           5       0      2.      0.      0.       0
GRID           6       0      2.      .5      0.       0
GRID           7       0      2.      1.      0.       0
GRID           8       0     1.5      1.      0.       0
GRID           9       0      1.      1.      0.       0
GRID          10       0      .5      1.      0.       0
GRID          11       0      0.      1.      0.       0
GRID          12       0      0.      .5      0.       0
GRID          13       0      .5      .5      0.       0
GRID          14       0      1.      .5      0.       0
GRID          15       0     1.5      .5      0.       0
CQUAD4         1       1       1       2      13      12
CQUAD4         2       1       2       3      14      13
CQUAD4         3       1       3       4      15      14
CQUAD4         4       1       4       5       6      15
CQUAD4         5       1      12      13      10      11
CQUAD4         6       1      13      14       9      10
CQUAD4         7       1      14      15       8       9
CQUAD4         8       1      15       6       7       8
ENDDATA
