INIT MASTER(S)
NASTRAN SYSTEM(442)=-1,SYSTEM(319)=1
ID FEMAP,FEMAP
SOL SESTATIC
CEND
  TITLE = Simcenter Nastran Static Analysis Set
  ECHO = NONE
  DISPLACEMENT(PLOT) = ALL
  SPCFORCE(PLOT) = ALL
  OLOAD(PLOT) = ALL
  FORCE(PLOT,CORNER) = ALL
  STRESS(PLOT,CORNER) = ALL
  SPC = 1
BEGIN BULK
$ ***************************************************************************
$   Written by : Femap
$   Version    : 2023.1.0
$   Translator : Simcenter Nastran
$   From Model :
$   Date       : Thu Apr 27 09:59:34 2023
$   Output To  : C:\Users\trbrooks\AppData\Local\Temp\1\
$ ***************************************************************************
$
PARAM,PRGPST,NO
PARAM,POST,-1
PARAM,OGEOM,NO
PARAM,AUTOSPC,YES
PARAM,K6ROT,100.
PARAM,GRDPNT,0
CORD2C         1       0      0.      0.      0.      0.      0.      1.+FEMAPC1
+FEMAPC1      1.      0.      1.
CORD2S         2       0      0.      0.      0.      0.      0.      1.+FEMAPC2
+FEMAPC2      1.      0.      1.
$ Femap Constraint Set 1 : Untitled
SPC1           1  123456      11
SPC1           1  123456      12
SPC1           1  123456      13
SPC1           1  123456      14
SPC1           1  123456      15
SPC1           1  123456      16
SPC1           1  123456      17
SPC1           1  123456      18
SPC1           1  123456      19
SPC1           1  123456      28
SPC1           1  123456      29
SPC1           1  123456      30
SPC1           1  123456      31
SPC1           1  123456      32
SPC1           1  123456      33
SPC1           1  123456      34
SPC1           1  123456      35
SPC1           1  123456      36
SPC1           1  123456      37
SPC1           1  123456      38
$ ... 21 like lines cut
$ Femap Property 1 : WALL
PSHELL         1       1      .1       1               1              0.
$ Femap Material 1 : Beryllium Copper
MAT1           1  1.85+7             .27  7.72-4  8.92-6     70.
MAT4           1.0010764  36.708  7.72-4
GRID           1       1      1.      0.      0.       0
GRID           2       1      1.    22.5      0.       0
GRID           3       1      1.     45.      0.       0
GRID           4       1      1.    67.5      0.       0
GRID           5       1      1.     90.      0.       0
GRID           6       1      1.   112.5      0.       0
GRID           7       1      1.    135.      0.       0
GRID           8       1      1.   157.5      0.       0
GRID           9       1      1.    180.      0.       0
GRID          10       1      1.    180.      .5       0
GRID          11       1      1.    180.      1.       0
GRID          12       1      1.   157.5      1.       0
GRID          13       1      1.    135.      1.       0
GRID          14       1      1.   112.5      1.       0
GRID          15       1      1.     90.      1.       0
GRID          16       1      1.    67.5      1.       0
GRID          17       1      1.     45.      1.       0
GRID          18       1      1.    22.5      1.       0
GRID          19       1      1.      0.      1.       0
GRID          20       1      1.      0.      .5       0
$ ... 78 like lines cut
CQUAD4         1       1       2       1      20      21
CQUAD4         2       1       3       2      21      22
CQUAD4         3       1       4       3      22      23
CQUAD4         4       1       5       4      23      24
CQUAD4         5       1       6       5      24      25
CQUAD4         6       1       7       6      25      26
CQUAD4         7       1       8       7      26      27
CQUAD4         8       1       9       8      27      10
CQUAD4         9       1      21      20      19      18
CQUAD4        10       1      22      21      18      17
CQUAD4        11       1      23      22      17      16
CQUAD4        12       1      24      23      16      15
CQUAD4        13       1      25      24      15      14
CQUAD4        14       1      26      25      14      13
CQUAD4        15       1      27      26      13      12
CQUAD4        16       1      10      27      12      11
CQUAD4        17       1      16      43      40      15
CQUAD4        18       1      41      40      43      42
CQUAD4        19       1      37      41      42      38
CQUAD4        20       1      19      39      44      18
$ ... 76 like lines cut
ENDDATA
