INIT MASTER(S)
NASTRAN SYSTEM(442)=-1,SYSTEM(319)=1
ID FEMAP,FEMAP
SOL SESTATIC
CEND
  TITLE = Simcenter Nastran Static Analysis Set
  ECHO = NONE
  DISPLACEMENT(PLOT) = ALL
  SPCFORCE(PLOT) = ALL
  OLOAD(PLOT) = ALL
  FORCE(PLOT,CORNER) = ALL
  STRESS(PLOT,CORNER) = ALL
  SPC = 1
BEGIN BULK
$ ***************************************************************************
$   Written by : Femap
$   Version    : 2506.0
$   Translator : Simcenter Nastran
$   From Model : 
$   Date       : Tue Oct 28 09:44:12 2025
$   Output To  : C:\Users\tbrooks\AppData\Local\Temp\
$ ***************************************************************************
$
PARAM,PRGPST,NO
PARAM,POST,-1
PARAM,OGEOM,NO
PARAM,AUTOSPC,YES
PARAM,K6ROT,100.
PARAM,GRDPNT,0
CORD2C         1       0      0.      0.      0.      0.      0.      1.+FEMAPC1
+FEMAPC1      1.      0.      1.        
CORD2S         2       0      0.      0.      0.      0.      0.      1.+FEMAPC2
+FEMAPC2      1.      0.      1.        
$ Femap Constraint Set 1 : Untitled
SPC1           1  123456       1
SPC1           1  123456       2
SPC1           1  123456       3
SPC1           1  123456       4
SPC1           1  123456       5
$ Femap Property 1 : PLATE Property
PSHELL         1       1     .01       1               1              0.
$ Femap Material 1 : Aluminum
MAT1           1   7.+10              .3   2700.      0.      0.        +       
+          2.7+8                
GRID           1       0      0.    -.05      0.       0
GRID           2       0      0.   -.025      0.       0
GRID           3       0      0.      0.      0.       0
GRID           4       0      0.    .025      0.       0
GRID           5       0      0.     .05      0.       0
GRID           6       0    .025     .05      0.       0
GRID           7       0     .05     .05      0.       0
GRID           8       0    .075     .05      0.       0
GRID           9       0      .1     .05      0.       0
GRID          10       0    .125     .05      0.       0
GRID          11       0     .15     .05      0.       0
GRID          12       0    .175     .05      0.       0
GRID          13       0      .2     .05      0.       0
GRID          14       0    .225     .05      0.       0
GRID          15       0     .25     .05      0.       0
GRID          16       0    .275     .05      0.       0
GRID          17       0      .3     .05      0.       0
GRID          18       0    .325     .05      0.       0
GRID          19       0     .35     .05      0.       0
GRID          20       0    .375     .05      0.       0
$ ... 186 like lines cut
CQUAD4         1       1       1       2      89      88                
CQUAD4         2       1       2       3      90      89                
CQUAD4         3       1       3       4      91      90                
CQUAD4         4       1       4       5       6      91                
CQUAD4         5       1      88      89      92      87                
CQUAD4         6       1      89      90      93      92                
CQUAD4         7       1      90      91      94      93                
CQUAD4         8       1      91       6       7      94                
CQUAD4         9       1      87      92      95      86                
CQUAD4        10       1      92      93      96      95                
CQUAD4        11       1      93      94      97      96                
CQUAD4        12       1      94       7       8      97                
CQUAD4        13       1      86      95      98      85                
CQUAD4        14       1      95      96      99      98                
CQUAD4        15       1      96      97     100      99                
CQUAD4        16       1      97       8       9     100                
CQUAD4        17       1      85      98     101      84                
CQUAD4        18       1      98      99     102     101                
CQUAD4        19       1      99     100     103     102                
CQUAD4        20       1     100       9      10     103                
$ ... 140 like lines cut
RBE3         161             206  123456      1.  123456      45      46+       
+             47      48      49
ENDDATA
