INIT MASTER(S)
NASTRAN SYSTEM(442)=-1,SYSTEM(319)=1
ID FEMAP,FEMAP
SOL SESTATIC
CEND
  TITLE = Simcenter Nastran Static Analysis Set
  ECHO = NONE
  DISPLACEMENT(PLOT) = ALL
  SPCFORCE(PLOT) = ALL
  OLOAD(PLOT) = ALL
  FORCE(PLOT,CORNER) = ALL
  STRESS(PLOT,CORNER) = ALL
SUBCASE 1
  SUBTITLE = Tension
  SPC = 1
  LOAD = 1
SUBCASE 2
  SUBTITLE = VertShear
  SPC = 1
  LOAD = 2
BEGIN BULK
$ ***************************************************************************
$   Written by : Femap
$   Version    : 2021.1.0
$   Translator : Simcenter Nastran
$   From Model :
$   Date       : Thu Apr 13 12:15:01 2023
$   Output To  : C:\Users\trbrooks\AppData\Local\Temp\2\
$ ***************************************************************************
$
PARAM,PRGPST,YES
PARAM,POST,-1
PARAM,OGEOM,NO
PARAM,AUTOSPC,YES
PARAM,K6ROT,100.
PARAM,GRDPNT,0
PARAM,NOFISR,1
CORD2C         1       0      0.      0.      0.      0.      0.      1.+FEMAPC1
+FEMAPC1      1.      0.      1.
CORD2S         2       0      0.      0.      0.      0.      0.      1.+FEMAPC2
+FEMAPC2      1.      0.      1.
$ Femap Coordinate System 3 : Rectangular Coordinate System
CORD2R         3       0      0.      0.      0.      0.      0.      1.+
+             0.      1.      0.
$ Femap Load Set 1 : Untitled
FORCE          1       2       0     10.  25000.      0.      0.
FORCE          1       3       0     10.  50000.      0.      0.
FORCE          1       4       0     10.  25000.      0.      0.
$ Femap Load Set 2 : Untitled
FORCE          2       2       0      1.      0.      0.    .025
FORCE          2       3       0      1.      0.      0.     .05
FORCE          2       4       0      1.      0.      0.    .025
$ Femap Constraint Set 1 : Untitled
SPC1           1  123456       1
SPC1           1  123456       5
SPC1           1  123456       6
$ Femap Property 1 : LAMINATE PLATE Property
PCOMP          1              0.                                     SYM+
+              1  1.25-4      0.     YES       1  1.25-4     45.     YES+
+              1  1.25-4     30.     YES
$ Femap Material 1 : PLY
MAT8           1  5.4+10  1.8+10     .25    9.+9    9.+9    9.+9   1550.+
+             0.      0.      0.  2.41+9  1.04+9   7.3+7  1.73+8   7.1+7+
+
GRID           1       0      0.      0.      0.       0
GRID           2       0     0.5      0.      0.       0
GRID           3       0     0.5      1.      0.       0
GRID           4       0      .5      2.      0.       0
GRID           5       0      0.      2.      0.       0
GRID           6       0      0.      1.      0.       0
CQUAD4         1       1       1       2       3       6       3
CQUAD4         2       1       6       3       4       5       3
ENDDATA
