INIT MASTER(S)
NASTRAN SYSTEM(442)=-1,SYSTEM(319)=1
ID FEMAP,FEMAP
SOL SESTATIC
CEND
  TITLE = Simcenter Nastran Static Analysis Set
  ECHO = NONE
  DISPLACEMENT(PLOT) = ALL
  SPCFORCE(PLOT) = ALL
  OLOAD(PLOT) = ALL
  FORCE(PLOT,CORNER) = ALL
  STRESS(PLOT,CORNER) = ALL
SUBCASE 1
  SUBTITLE = Axial
  SPC = 1
  LOAD = 1
SUBCASE 2
  SUBTITLE = Shear-Bending
  SPC = 1
  LOAD = 2
SUBCASE 3
  SUBTITLE = Moment-Bending
  SPC = 1
  LOAD = 3
SUBCASE 4
  SUBTITLE = Torsion
  SPC = 1
  LOAD = 4
SUBCASE 5
  SUBTITLE = Combined
  SPC = 1
  LOAD = 5
BEGIN BULK
$ ***************************************************************************
$   Written by : Femap
$   Version    : 2021.1.0
$   Translator : Simcenter Nastran
$   From Model :
$   Date       : Thu Oct 28 08:24:47 2021
$   Output To  : C:\Users\trbrooks\AppData\Local\Temp\1\
$ ***************************************************************************
$
PARAM,PRGPST,YES
PARAM,POST,-1
PARAM,OGEOM,NO
PARAM,AUTOSPC,YES
PARAM,K6ROT,100.
PARAM,GRDPNT,0
CORD2C         1       0      0.      0.      0.      0.      0.      1.+FEMAPC1
+FEMAPC1      1.      0.      1.
CORD2S         2       0      0.      0.      0.      0.      0.      1.+FEMAPC2
+FEMAPC2      1.      0.      1.
$ Femap Load Set 1 : Axial
FORCE          1     181       0      1.      0.      0.   1000.
$ Femap Load Set 2 : Shear-Bending
FORCE          2     181       0      1.      0.   1000.      0.
$ Femap Load Set 3 : Moment-Bending
MOMENT         3     181       0      1.      0.   1000.      0.
$ Femap Load Set 4 : Torsion
MOMENT         4     181       0      1.      0.      0.   1000.
$ Femap Load Set 5 : Combined
LOAD           5      1.      1.       1     1.0       2     1.0       3
              1.      4
$ Femap Constraint Set 1 : Untitled
SPC1           1  123456       1
SPC1           1  123456       2
SPC1           1  123456       3
SPC1           1  123456       4
SPC1           1  123456       5
SPC1           1  123456       6
SPC1           1  123456     109
SPC1           1  123456     110
SPC1           1  123456     111
SPC1           1  123456     112
$ Femap Property 1 : Cylinder
PSHELL         1       1    .005       1               1              0.
$ Femap Material 1 : Aluminum
MAT1           1   7.+10              .3   2700.      0.      0.        +
+          2.7+8
GRID           1       1      .5      0.      0.       0
GRID           2       1      .5     36.      0.       0
GRID           3       1      .5     72.      0.       0
GRID           4       1      .5    108.      0.       0
GRID           5       1      .5    144.      0.       0
GRID           6       1      .5    180.      0.       0
GRID           7       1      .5    180..2941176       0
GRID           8       1      .5    180..5882353       0
GRID           9       1      .5    180..8823529       0
GRID          10       1      .5    180.1.176471       0
GRID          11       1      .5    180.1.470588       0
GRID          12       1      .5    180.1.764706       0
GRID          13       1      .5    180.2.058824       0
GRID          14       1      .5    180.2.352941       0
GRID          15       1      .5    180.2.647059       0
GRID          16       1      .5    180.2.941176       0
GRID          17       1      .5    180.3.235294       0
GRID          18       1      .5    180.3.529412       0
GRID          19       1      .5    180.3.823529       0
GRID          20       1      .5    180.4.117647       0
$ ... 161 like lines cut
CQUAD4         1       1       1       2      45      44
CQUAD4         2       1       2       3      46      45
CQUAD4         3       1       3       4      47      46
CQUAD4         4       1       4       5      48      47
CQUAD4         5       1       5       6       7      48
CQUAD4         6       1      44      45      49      43
CQUAD4         7       1      45      46      50      49
CQUAD4         8       1      46      47      51      50
CQUAD4         9       1      47      48      52      51
CQUAD4        10       1      48       7       8      52
CQUAD4        11       1      43      49      53      42
CQUAD4        12       1      49      50      54      53
CQUAD4        13       1      50      51      55      54
CQUAD4        14       1      51      52      56      55
CQUAD4        15       1      52       8       9      56
CQUAD4        16       1      42      53      57      41
CQUAD4        17       1      53      54      58      57
CQUAD4        18       1      54      55      59      58
CQUAD4        19       1      55      56      60      59
CQUAD4        20       1      56       9      10      60
$ ... 150 like lines cut
RBE3         171             181  123456      1.     123     114     113+
+             28      27      26      25      24      23     116     115
ENDDATA eefacc3b
