INIT MASTER(S)
NASTRAN SYSTEM(319)=1
ID cylinder,FEMAP
SOL SESTATIC
CEND
  TITLE = MSC/MD Nastran Static Analysis Set
  ECHO = NONE
  DISPLACEMENT(PLOT) = ALL
  SPCFORCE(PLOT) = ALL
  OLOAD(PLOT) = ALL
  FORCE(PLOT,CORNER) = ALL
  STRESS(PLOT,CORNER) = ALL
SUBCASE 1
  SUBTITLE = Axial
  ANALYSIS = STATICS
  SPC = 1
  LOAD = 1
SUBCASE 2
  SUBTITLE = Shear-Bending
  ANALYSIS = STATICS
  SPC = 1
  LOAD = 2
SUBCASE 3
  SUBTITLE = Moment-Bending
  ANALYSIS = STATICS
  SPC = 1
  LOAD = 3
SUBCASE 4
  SUBTITLE = Torsion
  ANALYSIS = STATICS
  SPC = 1
  LOAD = 4
BEGIN BULK
$ ***************************************************************************
$   Written by : Femap
$   Version    : 2021.1.0
$   Translator : Simcenter Nastran
$   From Model :
$   Date       : Sun Sep 19 08:55:13 2021
$   Output To  : C:\Users\trbrooks\AppData\Local\Temp\1\
$ ***************************************************************************
$
PARAM,PRGPST,YES
PARAM,POST,-1
PARAM,OGEOM,NO
PARAM,AUTOSPC,YES
PARAM,GRDPNT,0
CORD2C         1       0      0.      0.      0.      0.      0.      1.+FEMAPC1
+FEMAPC1      1.      0.      1.
CORD2S         2       0      0.      0.      0.      0.      0.      1.+FEMAPC2
+FEMAPC2      1.      0.      1.
$ Femap Load Set 1 : Axial
FORCE          1    1633       0      1.      0.      0.   1000.
$ Femap Load Set 2 : Shear/Bending
FORCE          2    1633       0      1.      0.   1000.      0.
$ Femap Load Set 3 : Moment/Bending
MOMENT         3    1633       0      1.      0.   1000.      0.
$ Femap Load Set 4 : Torsion
MOMENT         4    1633       0      1.      0.      0.   1000.
$ Femap Constraint Set 1 : BC
SPC1           1  123456       1
SPC1           1  123456       2
SPC1           1  123456       3
SPC1           1  123456       4
SPC1           1  123456       5
SPC1           1  123456       6
SPC1           1  123456       7
SPC1           1  123456       8
SPC1           1  123456       9
SPC1           1  123456      10
SPC1           1  123456      11
SPC1           1  123456      12
SPC1           1  123456      13
SPC1           1  123456      14
SPC1           1  123456      15
SPC1           1  123456      16
SPC1           1  123456      17
SPC1           1  123456     868
SPC1           1  123456     869
SPC1           1  123456     870
$ ... 12 like lines cut
$ Femap Property 1 : Plate
PSHELL         1       1    .005       1               1              0.
$ Femap Material 1 : ISOTROPIC Material
MAT1           1   7.+102.692+10      .3      0.      0.      0.
GRID           1       1      .5      0.      0.       0
GRID           2       1      .511.25001      0.       0
GRID           3       1      .5    22.5      0.       0
GRID           4       1      .5   33.75      0.       0
GRID           5       1      .5     45.      0.       0
GRID           6       1      .5   56.25      0.       0
GRID           7       1      .5    67.5      0.       0
GRID           8       1      .578.74999      0.       0
GRID           9       1      .5     90.      0.       0
GRID          10       1.4999999  101.25      0.       0
GRID          11       1.5000001   112.5      0.       0
GRID          12       1.4999999  123.75      0.       0
GRID          13       1.4999997    135.      0.       0
GRID          14       1.5000002  146.25      0.       0
GRID          15       1.5000002   157.5      0.       0
GRID          16       1.5000004  168.75      0.       0
GRID          17       1      .5    180.      0.       0
GRID          18       1      .5    180.      .1       0
GRID          19       1      .5    180.      .2       0
GRID          20       1      .5    180.      .3       0
$ ... 1613 like lines cut
CQUAD4         1       1       1       2     133     132
CQUAD4         2       1       2       3     134     133
CQUAD4         3       1       3       4     135     134
CQUAD4         4       1       4       5     136     135
CQUAD4         5       1       5       6     137     136
CQUAD4         6       1       6       7     138     137
CQUAD4         7       1       7       8     139     138
CQUAD4         8       1       8       9     140     139
CQUAD4         9       1       9      10     141     140
CQUAD4        10       1      10      11     142     141
CQUAD4        11       1      11      12     143     142
CQUAD4        12       1      12      13     144     143
CQUAD4        13       1      13      14     145     144
CQUAD4        14       1      14      15     146     145
CQUAD4        15       1      15      16     147     146
CQUAD4        16       1      16      17      18     147
CQUAD4        17       1     132     133     148     131
CQUAD4        18       1     133     134     149     148
CQUAD4        19       1     134     135     150     149
CQUAD4        20       1     135     136     151     150
$ ... 1580 like lines cut
RBE3        1601            1633  123456      1.     123      67      68+
+             69      70      71      72      73      74      75      76+
+             77      78      79      80      81      82      83     883+
+            884     885     886     887     888     889     890     891+
+            892     893     894     895     896     897
ENDDATA 9f72e0dd