INIT MASTER(S)
NASTRAN SYSTEM(442)=-1,SYSTEM(319)=1
ID FEMAP,FEMAP
SOL SESTATIC
CEND
  TITLE = Simcenter Nastran Static Analysis Set
  ECHO = NONE
  DISPLACEMENT(PLOT) = ALL
  SPCFORCE(PLOT) = ALL
  OLOAD(PLOT) = ALL
  FORCE(PLOT,CORNER) = ALL
  STRESS(PLOT,CORNER) = ALL
SUBCASE 1
  SUBTITLE = PLOAD4
  SPC = 1
  LOAD = 1
SUBCASE 2
  SUBTITLE = PLOAD2
  SPC = 1
  LOAD = 2
BEGIN BULK
$ ***************************************************************************
$   Written by : Femap
$   Version    : 2021.1.0
$   Translator : Simcenter Nastran
$   From Model : 
$   Date       : Wed Nov  3 17:01:00 2021
$   Output To  : C:\Users\trbrooks\AppData\Local\Temp\1\
$ ***************************************************************************
$
PARAM,PRGPST,YES
PARAM,POST,-1
PARAM,OGEOM,NO
PARAM,AUTOSPC,YES
PARAM,K6ROT,100.
PARAM,GRDPNT,0
CORD2C         1       0      0.      0.      0.      0.      0.      1.+FEMAPC1
+FEMAPC1      1.      0.      1.        
CORD2S         2       0      0.      0.      0.      0.      0.      1.+FEMAPC2
+FEMAPC2      1.      0.      1.        
$ Femap Load Set 1 : Pressure2
PLOAD4         1       1   -1.+9
PLOAD4         1       2   -1.+9
PLOAD4         1       3   -1.+9
PLOAD4         1       4   -1.+9
PLOAD4         1       5   -1.+9
PLOAD4         1       6   -1.+9
PLOAD4         1       7   -1.+9
PLOAD4         1       8   -1.+9
PLOAD4         1       9   -1.+9
PLOAD4         1      10   -1.+9
PLOAD4         1      11   -1.+9
PLOAD4         1      12   -1.+9
PLOAD4         1      13   -1.+9
PLOAD4         1      14   -1.+9
PLOAD4         1      15   -1.+9
PLOAD4         1      16   -1.+9
PLOAD4         1      17   -1.+9
PLOAD4         1      18   -1.+9
PLOAD4         1      19   -1.+9
PLOAD4         1      20   -1.+9
$ ... 353 like lines cut
PLOAD2         2   -1.+9       1    THRU     373
$ Femap Constraint Set 1 : Clamp
SPC1           1  123456       1
SPC1           1  123456       2
SPC1           1  123456       3
SPC1           1  123456       4
SPC1           1  123456       5
SPC1           1  123456       6
SPC1           1  123456       7
SPC1           1  123456       8
SPC1           1  123456       9
SPC1           1  123456      10
SPC1           1  123456      11
SPC1           1  123456      12
SPC1           1  123456      13
SPC1           1  123456      14
SPC1           1  123456      15
SPC1           1  123456      16
SPC1           1  123456      17
SPC1           1  123456      18
SPC1           1  123456      19
SPC1           1  123456      20
$ ... 42 like lines cut
$ Femap Property 1 : Tank
PSHELL         1       1      .1       1               1              0.
$ Femap Material 1 : Aluminum
MAT1           1   7.+10              .3   2700.      0.      0.        +       
+          2.7+8                
GRID           1       2      1.     90.      0.       0
GRID           2       2      1.     90.5.806452       0
GRID           3       2      1.     90. 11.6129       0
GRID           4       2      1.     90.17.41936       0
GRID           5       2      1.     90.23.22581       0
GRID           6       2      1.     90.29.03226       0
GRID           7       2      1.     90.34.83871       0
GRID           8       2      1.     90.40.64516       0
GRID           9       2      1.     90.46.45161       0
GRID          10       2      1.     90.52.25806       0
GRID          11       2      1.     90.58.06451       0
GRID          12       2      1.     90.63.87097       0
GRID          13       2      1.     90.69.67742       0
GRID          14       2      1.     90.75.48387       0
GRID          15       2      1.     90.81.29032       0
GRID          16       2      1.     90.87.09677       0
GRID          17       2      1.     90.92.90322       0
GRID          18       2      1.     90.98.70968       0
GRID          19       2      1.     90.104.5161       0
GRID          20       2      1.     90.110.3226       0
$ ... 384 like lines cut
CQUAD4         1       1       1       2      64      63                
CQUAD4         2       1       2       3      65      64                
CQUAD4         3       1       3       4      66      65                
CQUAD4         4       1       4       5      67      66                
CQUAD4         5       1       5       6      68      67                
CQUAD4         6       1       6       7      69      68                
CQUAD4         7       1       7       8      70      69                
CQUAD4         8       1       8       9      71      70                
CQUAD4         9       1       9      10      72      71                
CQUAD4        10       1      10      11      73      72                
CQUAD4        11       1      11      12      74      73                
CQUAD4        12       1      12      13      75      74                
CQUAD4        13       1      13      14      76      75                
CQUAD4        14       1      14      15      77      76                
CQUAD4        15       1      15      16      78      77                
CQUAD4        16       1      16      17      79      78                
CQUAD4        17       1      17      18      80      79                
CQUAD4        18       1      18      19      81      80                
CQUAD4        19       1      19      20      82      81                
CQUAD4        20       1      20      21      83      82                
$ ... 176 like lines cut
CTRIA3       197       1     170     171     296                        
CQUAD4       198       1     295     168     169     170                
CQUAD4       199       1     290     167     168     295                
CQUAD4       200       1     295     294     289     290                
CQUAD4       201       1     294     293     288     289                
CQUAD4       202       1     291     173     174     284                
CQUAD4       203       1     284     285     292     291                
CQUAD4       204       1     285     286     293     292                
CQUAD4       205       1     286     287     288     293                
CQUAD4       206       1     283     165     166     298                
CQUAD4       207       1     283     298     290     282                
CQUAD4       208       1     166     167     290     298                
CQUAD4       209       1     290     289     281     282                
CQUAD4       210       1     289     288     280     281                
CQUAD4       211       1     288     287     279     280                
CQUAD4       212       1     284     174     175     274                
CQUAD4       213       1     274     275     285     284                
CQUAD4       214       1     275     276     286     285                
CQUAD4       215       1     276     277     287     286                
CQUAD4       216       1     277     278     279     287                
CQUAD4       217       1     198     164     165     283                
$ ... 121 like lines cut
CTRIA3       339       1     381     183     184                        
CQUAD4       340       1     390     389     380     381                
CQUAD4       341       1     389     388     379     380                
CQUAD4       342       1     388     387     378     379                
CQUAD4       343       1     387     386     377     378                
CQUAD4       344       1     382     131     132     307                
CQUAD4       345       1     307     306     383     382                
CQUAD4       346       1     306     305     384     383                
CQUAD4       347       1     305     304     385     384                
CQUAD4       348       1     304     303     386     385                
CQUAD4       349       1     303     302     377     386                
CQUAD4       350       1     376     182     183     381                
CQUAD4       351       1     381     380     375     376                
CQUAD4       352       1     380     379     374     375                
CQUAD4       353       1     379     378     373     374                
CQUAD4       354       1     378     377     372     373                
CQUAD4       355       1     377     302     301     372                
CQUAD4       356       1     371     181     182     376                
CQUAD4       357       1     376     375     370     371                
CQUAD4       358       1     375     374     369     370                
CQUAD4       359       1     374     373     368     369                
$ ... 14 like lines cut
ENDDATA c4a11fdf
