INIT MASTER(S)
NASTRAN SYSTEM(442)=-1,SYSTEM(319)=1
ID FEMAP,FEMAP
SOL SESTATIC
CEND
  TITLE = Simcenter Nastran Static Analysis Set
  ECHO = NONE
  DISPLACEMENT(PLOT) = ALL
  SPCFORCE(PLOT) = ALL
  OLOAD(PLOT) = ALL
  FORCE(PLOT,CORNER) = ALL
  STRESS(PLOT,CORNER) = ALL
  SPC = 1
  LOAD = 1
BEGIN BULK
$ ***************************************************************************
$   Written by : Femap
$   Version    : 2021.1.0
$   Translator : Simcenter Nastran
$   From Model :
$   Date       : Fri May 13 15:22:56 2022
$   Output To  : C:\Users\trbrooks\AppData\Local\Temp\1\
$ ***************************************************************************
$
PARAM,PRGPST,YES
PARAM,POST,-1
PARAM,OGEOM,NO
PARAM,AUTOSPC,YES
PARAM,K6ROT,100.
PARAM,GRDPNT,0
CORD2C         1       0      0.      0.      0.      0.      0.      1.+FEMAPC1
+FEMAPC1      1.      0.      1.
CORD2S         2       0      0.      0.      0.      0.      0.      1.+FEMAPC2
+FEMAPC2      1.      0.      1.
$ Femap Load Set 1 : y-shear
FORCE          1      89       0      1.      0.1000000.      0.
$ Femap Constraint Set 1 : Clamp
SPC1           1  123456       1
SPC1           1  123456      26
SPC1           1  123456      27
SPC1           1  123456      28
SPC1           1  123456      29
SPC1           1  123456      30
$ Femap Property 2 : Flange
PROD           2       1     .05      0.      0.      0.
$ Femap Property 1 : Web
PSHELL         1       1      .1       1               1              0.
$ Femap Material 1 : Aluminum
MAT1           1   7.+10              .3   2700.      0.      0.        +
+          2.7+8
GRID           1       0      0.      0.      0.       0
GRID           2       0      1.      0.      0.       0
GRID           3       0      2.      0.      0.       0
GRID           4       0      3.      0.      0.       0
GRID           5       0      4.      0.      0.       0
GRID           6       0      5.      0.      0.       0
GRID           7       0      6.      0.      0.       0
GRID           8       0      7.      0.      0.       0
GRID           9       0      8.      0.      0.       0
GRID          10       0      9.      0.      0.       0
GRID          11       0     10.      0.      0.       0
GRID          12       0     10.      .2      0.       0
GRID          13       0     10.      .4      0.       0
GRID          14       0     10.      .6      0.       0
GRID          15       0     10.      .8      0.       0
GRID          16       0     10.      1.      0.       0
GRID          17       0      9.      1.      0.       0
GRID          18       0      8.      1.      0.       0
GRID          19       0      7.      1.      0.       0
GRID          20       0      6.      1.      0.       0
$ ... 47 like lines cut
CQUAD4         1       1       1       2      31      30
CQUAD4         2       1       2       3      32      31
CQUAD4         3       1       3       4      33      32
CQUAD4         4       1       4       5      34      33
CQUAD4         5       1       5       6      35      34
CQUAD4         6       1       6       7      36      35
CQUAD4         7       1       7       8      37      36
CQUAD4         8       1       8       9      38      37
CQUAD4         9       1       9      10      39      38
CQUAD4        10       1      10      11      12      39
CQUAD4        11       1      30      31      40      29
CQUAD4        12       1      31      32      41      40
CQUAD4        13       1      32      33      42      41
CQUAD4        14       1      33      34      43      42
CQUAD4        15       1      34      35      44      43
CQUAD4        16       1      35      36      45      44
CQUAD4        17       1      36      37      46      45
CQUAD4        18       1      37      38      47      46
CQUAD4        19       1      38      39      48      47
CQUAD4        20       1      39      12      13      48
$ ... 29 like lines cut
CROD          51       2      16      17
CQUAD4        50       1      66      15      16      17
CROD          52       2      17      18
CROD          53       2      18      19
CROD          54       2      19      20
CROD          55       2      20      21
CROD          56       2      21      22
CROD          57       2      22      23
CROD          58       2      23      24
CROD          59       2      24      25
CROD          60       2      25      26
CROD          61       2       1       2
CROD          62       2       2       3
CROD          63       2       3       4
CROD          64       2       4       5
CROD          65       2       5       6
CROD          66       2       6       7
CROD          67       2       7       8
CROD          68       2       8       9
CROD          70       2      10      11
CROD          69       2       9      10
RBE3          71              89  123456      1.  123456      16      15+
+             14      13      12      11
DESVAR         1  FEMAP1     0.1    0.01    0.5
DVPREL1        1  PSHELL       1       T    0.01     0.5      0.        +
+              1      1.
ENDDATA