$ NASTRAN INPUT DECK
$ CREATED BASED ON USER-PROVIDED IMAGE
$
SOL 101
CEND
$
TITLE = 2D FRAME STRUCTURE ANALYSIS
$
SUBCASE 1
    LABEL = STATIC LOAD CASE
    SPC = 100
    LOAD = 20
    DISPLACEMENT(SORT1,PLOT) = ALL
    STRESS(SORT1,PLOT,VONMISES) = ALL
$
BEGIN BULK
$
$ --- PARAMETERS ---
$ CHECK FOR COINCIDENT GRID POINTS
PARAM,GRDPNT,0
$
$ --- GRID POINT DEFINITIONS (NODES) ---
$ ASSUMING 1M TALL (1-3) AND 1.5M WIDE (6-7)
$ NODE 3 AT (0, 1, 0)
$ NODE 1 AT (0, 0, 0)
$ NODE 5 AT (0.5, 0, 0)
$     (5)        (3)       (6)
$ 6 ------- 3 -------- 4 ------- 7
$           |          |
$           |          |
$       (2) |          |
$           |          |
$           2          | (4)
$           |          |
$           |          |
$       (1) |          |
$           |          |
$           1          5
$
$GRID   ID      CP      X1      X2      X3
GRID    1       0       0.0     0.0     0.0
GRID    2       0       0.0     0.5     0.0
GRID    3       0       0.0     1.0     0.0
GRID    4       0       0.5     1.0     0.0
GRID    5       0       0.5     0.0     0.0
GRID    6       0       -0.5    1.0     0.0
GRID    7       0       1.0     1.0     0.0
$
$ --- ELEMENT DEFINITIONS (CBAR) ---
$ Comp 1: 1, 2
$ Comp 2: 3, 6
$ Comp 3: 4
$ Comp 4: 5
$
$CBAR   EID     PID     GA      GB      X1/G0   X2      X3
$ USING (0,0,1) AS ORIENTATION VECTOR FOR ALL ELEMENTS
$Elements and Element Properties for region : Beam 1
CBAR    1       1       1       2       0.0     0.0     1.0
CBAR    2       1       2       3       0.0     0.0     1.0
$Elements and Element Properties for region : Beam 2
CBAR    3       2       4       3       0.0     0.0     1.0
CBAR    6       2       7       4       0.0     0.0     1.0
$Elements and Element Properties for region : Beam 3
CBAR    4       3       5       4       0.0     0.0     1.0
$Elements and Element Properties for region : Beam 4
CBAR    5       4       3       6       0.0     0.0     1.0
$
$ --- PROPERTY DEFINITIONS (PBARL) ---
$ USING PBARL FOR SOLID RECTANGULAR (BAR) SECTIONS.
$
$ PBARL 1 (FOR EIDS 1, 2): 0.05M X 0.05M
$PBARL  PID     MID     TYPE    DIM1    DIM2
PBARL   1       1               BAR
        0.05    0.05
$
$ PBARL 2 (FOR EIDS 3, 6): 0.1M X 0.1M
PBARL   2       1               BAR
        0.1     0.1
$
$ PBARL 3 (FOR EID 4): 0.07M X 0.07M
PBARL   3       1               BAR
        0.07    0.07
$
$ PBARL 4 (FOR EID 5): 0.03M X 0.03M
PBARL   4       1               BAR
        0.03    0.03
$
$ --- MATERIAL DEFINITION (MAT1) ---
$ STANDARD PROPERTIES FOR ALUMINIUM IN SI UNITS (N, M, KG, S)
$
$MAT1   MID     E       G       NU      RHO
MAT1    1       7.0E10  2.6E10  0.33    2700.0
$
$ --- CONSTRAINTS (SPC) ---
$ FIXING NODES 1 AND 5 IN ALL 6 DOFS
SPC1    100     123456  1       5
$
$ --- LOADS (FORCE) ---
$ APPLYING LOADS AT NODES 6 AND 7
$
$LOAD     SID     S     S1      L1      S2      L2
LOAD    20      1.0     1.0     200     1.0     201
$
$ FORCE AT NODE 7: (0, -1000, 200)
$FORCE    SID     G       CID     F_SCALE N1_X    N2_Y    N3_Z
FORCE   200     7       0       1.0     0.0     -1000.0 200.0
$
$ FORCE AT NODE 6: (200, 500, -400)
$FORCE    SID     G       CID     F_SCALE N1_X    N2_Y    N3_Z
FORCE    201     6       0       1.0     200.0   500.0   -400.0
$
ENDDATA
