INIT MASTER(S)
NASTRAN SYSTEM(442)=-1,SYSTEM(319)=1
ID FEMAP,FEMAP
SOL SESTATIC
CEND
  TITLE = Simcenter Nastran Static Analysis Set
  ECHO = NONE
  DISPLACEMENT(PLOT) = ALL
  SPCFORCE(PLOT) = ALL
  OLOAD(PLOT) = ALL
  FORCE(PLOT,CORNER) = ALL
  STRESS(PLOT,CORNER) = ALL
  SPC = 1
  LOAD = 1
BEGIN BULK
$ ***************************************************************************
$   Written by : Femap
$   Version    : 2506.0
$   Translator : Simcenter Nastran
$   From Model : 
$   Date       : Thu Jan 22 10:53:44 2026
$   Output To  : C:\Users\tbrooks\AppData\Local\Temp\
$ ***************************************************************************
$
PARAM,PRGPST,NO
PARAM,POST,-1
PARAM,OGEOM,NO
PARAM,AUTOSPC,YES
PARAM,K6ROT,100.
PARAM,GRDPNT,0
CORD2C         1       0      0.      0.      0.      0.      0.      1.+FEMAPC1
+FEMAPC1      1.      0.      1.        
CORD2S         2       0      0.      0.      0.      0.      0.      1.+FEMAPC2
+FEMAPC2      1.      0.      1.        
$ Femap Load Set 1 : Untitled
FORCE          1       9       0      1.      0.-500000. 500000.
$ Femap Constraint Set 1 : Untitled
SPC1           1  123456       1
$ Femap Property 1 : BAR Property (NASTRAN Bar)
PBARL          1       1 MSCBML0     BAR                                +       
+             .1      .1      0.        
$ Femap Material 1 : ISOTROPIC Material
MAT1           1   7.+10              .3   2700.      0.      0.        +       
+          2.7+8                
GRID           1       0      0.      0.      0.       0
GRID           2       0    .125      0.      0.       0
GRID           3       0     .25      0.      0.       0
GRID           4       0    .375      0.      0.       0
GRID           5       0      .5      0.      0.       0
GRID           6       0    .625      0.      0.       0
GRID           7       0     .75      0.      0.       0
GRID           8       0    .875      0.      0.       0
GRID           9       0      1.      0.      0.       0
CBAR           1       1       1       2      0.      1.      0.        +       
+                             0.    -.05     .05      0.    -.05     .05
CBAR           2       1       2       3      0.      1.      0.        +       
+                             0.    -.05     .05      0.    -.05     .05
CBAR           3       1       3       4      0.      1.      0.        +       
+                             0.    -.05     .05      0.    -.05     .05
CBAR           4       1       4       5      0.      1.      0.        +       
+                             0.    -.05     .05      0.    -.05     .05
CBAR           5       1       5       6      0.      1.      0.        +       
+                             0.    -.05     .05      0.    -.05     .05
CBAR           6       1       6       7      0.      1.      0.        +       
+                             0.    -.05     .05      0.    -.05     .05
CBAR           7       1       7       8      0.      1.      0.        +       
+                             0.    -.05     .05      0.    -.05     .05
CBAR           8       1       8       9      0.      1.      0.        +       
+                             0.    -.05     .05      0.    -.05     .05
ENDDATA b0eac5ff
