INIT MASTER(S)
NASTRAN SYSTEM(442)=-1,SYSTEM(319)=1
ID FEMAP,FEMAP
SOL SESTATIC
CEND
  TITLE = Simcenter Nastran Static Analysis Set
  ECHO = NONE
  DISPLACEMENT(PLOT) = ALL
  SPCFORCE(PLOT) = ALL
  OLOAD(PLOT) = ALL
  FORCE(PLOT,CORNER) = ALL
  STRESS(PLOT,CORNER) = ALL
  SPC = 1
BEGIN BULK
$ ***************************************************************************
$   Written by : Femap
$   Version    : 2021.1.0
$   Translator : Simcenter Nastran
$   From Model : 
$   Date       : Wed Nov  3 10:18:23 2021
$   Output To  : C:\Users\trbrooks\AppData\Local\Temp\1\
$ ***************************************************************************
$
PARAM,PRGPST,YES
PARAM,POST,-1
PARAM,OGEOM,NO
PARAM,AUTOSPC,YES
PARAM,K6ROT,100.
PARAM,GRDPNT,0
CORD2C         1       0      0.      0.      0.      0.      0.      1.+FEMAPC1
+FEMAPC1      1.      0.      1.        
CORD2S         2       0      0.      0.      0.      0.      0.      1.+FEMAPC2
+FEMAPC2      1.      0.      1.        
$ Femap Constraint Set 1 : Clamp
SPC1           1  123456       6
SPC1           1  123456      46
SPC1           1  123456      76
SPC1           1  123456     106
SPC1           1  123456     127
SPC1           1  123456     128
SPC1           1  123456     129
SPC1           1  123456     130
SPC1           1  123456     131
SPC1           1  123456     132
SPC1           1  123456     133
SPC1           1  123456     134
SPC1           1  123456     135
SPC1           1  123456     152
SPC1           1  123456     153
SPC1           1  123456     154
SPC1           1  123456     155
SPC1           1  123456     156
SPC1           1  123456     157
SPC1           1  123456     158
$ ... 20 like lines cut
$ Use a mix of FEMAP, Patran, and HyperMesh format property labels
$ Usually it will be one or the other in a real mesh, but this is a convenient way for testing both
$ Femap Property 1 : PLATE.00
PSHELL         1       1      .1       1               1              0.
$ Femap Property 2 : PLATE.01
PSHELL         2       1      .1       1               1              0.
$HMNAME PROP                   3"PLATE.02" 4
$HWCOLOR PROP                  3      28
PSHELL         3       1      .1       1               1              0.
$ Elements and Element Properties for region : PLATE.03
PSHELL         4       1      .1       1               1              0.
$ Femap Material 1 : Aluminum
MAT1           1   7.+10              .3      0.      0.      0.        +       
+          2.7+8                
GRID           6       0     .25      0.      0.       0
GRID           7       0     .25     .05      0.       0
GRID           8       0     .25      .1      0.       0
GRID           9       0     .25     .15      0.       0
GRID          10       0     .25      .2      0.       0
GRID          11       0     .25     .25      0.       0
GRID          46       0      .5     .25      0.       0
GRID          47       0     .45     .25      0.       0
GRID          48       0      .4     .25      0.       0
GRID          49       0     .35     .25      0.       0
GRID          50       0      .3     .25      0.       0
GRID          72       0      .2     .25      0.       0
GRID          73       0     .15     .25      0.       0
GRID          74       0      .1     .25      0.       0
GRID          75       0     .05     .25      0.       0
GRID          76       0      0.     .25      0.       0
GRID         106       0     .25      .5      0.       0
GRID         107       0     .25     .45      0.       0
GRID         108       0     .25      .4      0.       0
GRID         109       0     .25     .35      0.       0
$ ... 101 like lines cut
CQUAD4       101       2       6     127     136       7                
CQUAD4       102       2     127     128     137     136                
CQUAD4       103       2     128     129     138     137                
CQUAD4       104       2     129     130     139     138                
CQUAD4       105       2     130     131     132     139                
CQUAD4       106       2       7     136     140       8                
CQUAD4       107       2     136     137     141     140                
CQUAD4       108       2     137     138     142     141                
CQUAD4       109       2     138     139     143     142                
CQUAD4       110       2     139     132     133     143                
CQUAD4       111       2       8     140     144       9                
CQUAD4       112       2     140     141     145     144                
CQUAD4       113       2     141     142     146     145                
CQUAD4       114       2     142     143     147     146                
CQUAD4       115       2     143     133     134     147                
CQUAD4       116       2       9     144     148      10                
CQUAD4       117       2     144     145     149     148                
CQUAD4       118       2     145     146     150     149                
CQUAD4       119       2     146     147     151     150                
CQUAD4       120       2     147     134     135     151                
$ ... 80 like lines cut
ENDDATA 3d8a0f6e
