INIT MASTER(S)
NASTRAN SYSTEM(442)=-1,SYSTEM(319)=1
ID FEMAP,FEMAP
SOL SESTATIC
CEND
  TITLE = Simcenter Nastran Static Analysis Set
  ECHO = NONE
  DISPLACEMENT(PLOT) = ALL
  SPCFORCE(PLOT) = ALL
  OLOAD(PLOT) = ALL
  FORCE(PLOT,CORNER) = ALL
  STRESS(PLOT,CORNER) = ALL
  SPC = 1
BEGIN BULK
$ ***************************************************************************
$   Written by : Femap
$   Version    : 2021.1.0
$   Translator : Simcenter Nastran
$   From Model :
$   Date       : Thu Oct 28 07:57:46 2021
$   Output To  : C:\Users\trbrooks\AppData\Local\Temp\1\
$ ***************************************************************************
$
PARAM,PRGPST,YES
PARAM,POST,-1
PARAM,OGEOM,NO
PARAM,AUTOSPC,YES
PARAM,K6ROT,100.
PARAM,GRDPNT,0
CORD2C         1       0      0.      0.      0.      0.      0.      1.+FEMAPC1
+FEMAPC1      1.      0.      1.
CORD2S         2       0      0.      0.      0.      0.      0.      1.+FEMAPC2
+FEMAPC2      1.      0.      1.
$ Define plate coordinate system with center at 0.5, 0.5, 0.0
CORD2R         3       0      .5      .5      0.      .5      .5      1.+FEMAPC3
+FEMAPC3     1.5      .5      0.
$ Femap Constraint Set 1 : Fixed
SPC1           1  123456       1
SPC1           1  123456       2
SPC1           1  123456       3
SPC1           1  123456       4
SPC1           1  123456       5
SPC1           1  123456       6
SPC1           1  123456       7
SPC1           1  123456       8
SPC1           1  123456       9
SPC1           1  123456      10
SPC1           1  123456      11
SPC1           1  123456      12
SPC1           1  123456      13
SPC1           1  123456      14
SPC1           1  123456      15
SPC1           1  123456      16
SPC1           1  123456      17
SPC1           1  123456      18
SPC1           1  123456      19
SPC1           1  123456      20
$ ... 20 like lines cut
$ Femap Property 1 : PLATE
PSHELL         1       1    .005       1               1              0.
$ Femap Property 2 : DUMMY
PSHELL      9999       1    .005       1               1              0.
$ Femap Material 1 : 2024-T351 Al Plate: t = 0.25 to 0.5 inches
MAT1           1  1.07+7             .332.5906-4 1.255-5     70.        +
+         42000.  40000.  38000.
MAT4           1.0016435  83.0762.5906-4
GRID           1       3     -.5     -.5      0.       0
GRID           2       3     -.4     -.5      0.       0
GRID           3       3     -.3     -.5      0.       0
GRID           4       3     -.2     -.5      0.       0
GRID           5       3     -.1     -.5      0.       0
GRID           6       3      0.     -.5      0.       0
GRID           7       3      .1     -.5      0.       0
GRID           8       3      .2     -.5      0.       0
GRID           9       3      .3     -.5      0.       0
GRID          10       3      .4     -.5      0.       0
GRID          11       3      .5     -.5      0.       0
GRID          12       3      .5     -.4      0.       0
GRID          13       3      .5     -.3      0.       0
GRID          14       3      .5     -.2      0.       0
GRID          15       3      .5     -.1      0.       0
GRID          16       3      .5      0.      0.       0
GRID          17       3      .5      .1      0.       0
GRID          18       3      .5      .2      0.       0
GRID          19       3      .5      .3      0.       0
GRID          20       3      .5      .4      0.       0
$ ... 101 like lines cut
CQUAD4         1       1       1       2      41      40
CQUAD4         2       1       2       3      42      41
CQUAD4         3       1       3       4      43      42
CQUAD4         4       1       4       5      44      43
CQUAD4         5       1       5       6      45      44
CQUAD4         6       1       6       7      46      45
CQUAD4         7       1       7       8      47      46
CQUAD4         8       1       8       9      48      47
CQUAD4         9       1       9      10      49      48
CQUAD4        10       1      10      11      12      49
CQUAD4        11       1      40      41      50      39
CQUAD4        12       1      41      42      51      50
CQUAD4        13       1      42      43      52      51
CQUAD4        14       1      43      44      53      52
CQUAD4        15       1      44      45      54      53
CQUAD4        16       1      45      46      55      54
CQUAD4        17       1      46      47      56      55
CQUAD4        18       1      47      48      57      56
CQUAD4        19       1      48      49      58      57
CQUAD4        20       1      49      12      13      58
$ ... 80 like lines cut
ENDDATA