SOL 101
CEND
BEGIN BULK
GRID,1,,0.0,0.0,0.0
GRID,2,,1.0,0.0,0.0
GRID,3,,1.0,1.0,0.0
GRID,4,,0.0,1.0,0.0
GRID,5,,2.0,0.5,0.0
CQUAD4,1,1,1,2,3,4
CTRIA3,2,1,2,5,3
SPC1,1,123456,1,4
PSHELL,1,1,0.01,1,,1
MAT1,1,70.e9,,0.3,2700.0
ENDDATA
