SOL 101
CEND
ECHO = NONE
SUBCASE 1
   SPC = 1
   LOAD = 1
   DISPLACEMENT=ALL
   SPCFORCES=ALL
   MPCFORCE=ALL
BEGIN BULK
PARAM    POST    -1
$
PSHELL   1       1       .2      1               1
$
CQUAD4   1       1       1       2       7       6
CQUAD4   2       1       2       3       8       7
CQUAD4   3       1       3       4       9       8
CQUAD4   4       1       4       5       10      9
CQUAD4   5       1       6       7       12      11
CQUAD4   6       1       7       8       13      12
CQUAD4   7       1       8       9       14      13
CQUAD4   8       1       9       10      15      14
CQUAD4   9       1       11      12      17      16
CQUAD4   10      1       12      13      18      17
CQUAD4   11      1       13      14      19      18
CQUAD4   12      1       14      15      20      19
CQUAD4   13      1       16      17      22      21
CQUAD4   14      1       17      18      23      22
CQUAD4   15      1       18      19      24      23
CQUAD4   16      1       19      20      25      24
CQUAD4   17      1       26      27      32      31
CQUAD4   18      1       27      28      33      32
CQUAD4   19      1       28      29      34      33
CQUAD4   20      1       29      30      35      34
$ ... 12 like lines cut
$
MAT1           1   7.+10              .3   2700.      0.      0.        +
+          2.7+8
$
RBE2     33      1000    123456  5       10      15      20      25     +      A
+      A 26      31      36      41      46
$
GRID     1000            15.     5.      0.
GRID     1               0.      0.      0.
GRID     2               2.5     0.      0.
GRID     3               5.      0.      0.
GRID     4               7.5     0.      0.
GRID     5               10.     0.      0.
GRID     6               0.      2.5     0.
GRID     7               2.5     2.5     0.
GRID     8               5.      2.5     0.
GRID     9               7.5     2.5     0.
GRID     10              10.     2.5     0.
GRID     11              0.      5.      0.
GRID     12              2.5     5.      0.
GRID     13              5.      5.      0.
GRID     14              7.5     5.      0.
GRID     15              10.     5.      0.
GRID     16              0.      7.5     0.
GRID     17              2.5     7.5     0.
GRID     18              5.      7.5     0.
GRID     19              7.5     7.5     0.
$ ... 31 like lines cut
$
SPC1     1       123456  1       6       11      16      21      30     +      B
+      B 35      40      45      50
$
FORCE    1       1000    0       1.e6    1.e2    0.      1.
MOMENT   1       1000    0       1.e6    0.      0.      1.e2
$
ENDDATA