INIT MASTER(S)
NASTRAN SYSTEM(442)=-1,SYSTEM(319)=1
ID FEMAP,FEMAP
SOL SESTATIC
CEND
  TITLE = Simcenter Nastran Static Analysis Set
  SUBTITLE = AxialPressure
  ECHO = NONE
  DISPLACEMENT(PLOT) = ALL
  SPCFORCE(PLOT) = ALL
  OLOAD(PLOT) = ALL
  FORCE(PLOT,CORNER) = ALL
  STRESS(PLOT,CORNER) = ALL
  SPC = 1
  LOAD = 1
BEGIN BULK
$ ***************************************************************************
$   Written by : Femap
$   Version    : 2021.1.0
$   Translator : Simcenter Nastran
$   From Model : 
$   Date       : Wed Nov  3 13:59:43 2021
$   Output To  : C:\Users\trbrooks\AppData\Local\Temp\1\
$ ***************************************************************************
$
PARAM,PRGPST,YES
PARAM,POST,-1
PARAM,OGEOM,NO
PARAM,AUTOSPC,YES
PARAM,K6ROT,100.
PARAM,GRDPNT,0
CORD2C         1       0      0.      0.      0.      0.      0.      1.+FEMAPC1
+FEMAPC1      1.      0.      1.        
CORD2S         2       0      0.      0.      0.      0.      0.      1.+FEMAPC2
+FEMAPC2      1.      0.      1.        
$ Femap Load Set 1 : Pressure
PLOAD4         1     257    1.+7                              18     131
PLOAD4         1     260    1.+7                              19     131
PLOAD4         1     263    1.+7                              65     131
PLOAD4         1     271    1.+7                              98     131
PLOAD4         1     272    1.+7                              19     131
PLOAD4         1     343    1.+7                              97     131
PLOAD4         1     580    1.+7                              66     131
PLOAD4         1     606    1.+7                              19     131
$ Femap Constraint Set 1 : Clamp
SPC1           1  123456       1
SPC1           1  123456       2
SPC1           1  123456       3
SPC1           1  123456      49
SPC1           1  123456      50
SPC1           1  123456      81
SPC1           1  123456      82
SPC1           1  123456     113
SPC1           1  123456     130
SPC1           1  123456     146
SPC1           1  123456     151
SPC1           1  123456     253
SPC1           1  123456     257
SPC1           1  123456     345
SPC1           1  123456     349
SPC1           1  123456     437
SPC1           1  123456     441
SPC1           1  123456     522
SPC1           1  123456     523
SPC1           1  123456     524
$ ... 5 like lines cut
$ Femap Property 1 : BEAM
PSOLID         1       1       0        
$ Femap Material 1 : Aluminum
MAT1           1   7.+10              .3   2700.      0.      0.        +
+          2.7+8
GRID           1       0      0.      0.      0.       0
GRID           2       0      .5      0.      0.       0
GRID           3       0      1.      0.      0.       0
GRID           4       0      1.      0..6666667       0
GRID           5       0      1.      0.1.333333       0
GRID           6       0      1.      0.      2.       0
GRID           7       0      1.      0.2.666667       0
GRID           8       0      1.      0.3.333333       0
GRID           9       0      1.      0.      4.       0
GRID          10       0      1.      0.4.666667       0
GRID          11       0      1.      0.5.333333       0
GRID          12       0      1.      0.      6.       0
GRID          13       0      1.      0.6.666667       0
GRID          14       0      1.      0.7.333333       0
GRID          15       0      1.      0.      8.       0
GRID          16       0      1.      0.8.666667       0
GRID          17       0      1.      0.9.333333       0
GRID          18       0      1.      0.     10.       0
GRID          19       0      .5      0.     10.       0
GRID          20       0      0.      0.     10.       0
$ ... 764 like lines cut
CTETRA       257       1      18      19      66     131     252     517+       
+            341     530     531     532
CTETRA       258       1      94     110      95     132     418     423+       
+            422     533     534     535
CTETRA       259       1      64      80      65     112     338     343+       
+            342     427     536     431
CTETRA       260       1      19      20     114     131     249     513+       
+            514     531     537     538
CTETRA       261       1      96     112      97     128     430     435+       
+            434     506     539     509
CTETRA       262       1      44      76     133     134     540     541+       
+            542     543     544     545
CTETRA       263       1      65      66      98     131     344     521+       
+            433     546     532     547
CTETRA       264       1      97     114     128     131     511     510+       
+            509     548     538     549
CTETRA       265       1      95     127     126     132     501     500+       
+            499     535     550     551
CTETRA       266       1      97     128     112     131     509     539+       
+            435     548     549     552
CTETRA       267       1       4      35     135     136     154     553+       
+            554     555     556     557
CTETRA       268       1       2     130      35     136     523     558+       
+            149     559     560     556
CTETRA       269       1       3       4      49     136     152     254+       
+            253     561     555     562
CTETRA       270       1       8      72      71     137     286     285+       
+            281     563     564     565
CTETRA       271       1      98     129     114     131     519     516+       
+            520     547     566     538
CTETRA       272       1      19     129      66     131     515     518+       
+            517     531     566     532
CTETRA       273       1      28      42      41     121     198     197+       
+            193     473     567     568
CTETRA       274       1       2       3      49     136     151     253+       
+            522     559     561     562
CTETRA       275       1      42     106     122     138     569     570+       
+            571     572     573     574
CTETRA       276       1      49     130     136     139     524     560+       
+            562     575     576     577
$ ... 694 like lines cut
ENDDATA f62f5672
