INIT MASTER(S)
NASTRAN SYSTEM(442)=-1,SYSTEM(319)=1
ID FEMAP,FEMAP
SOL SEBUCKL
CEND
  TITLE = Simcenter Nastran Buckling Analysis Set
  ECHO = NONE
  DISPLACEMENT(PLOT) = ALL
  SPCFORCE(PLOT) = ALL
  STRESS(PLOT,CORNER) = ALL
  SPC = 1
SUBCASE 1
  LOAD = 1
SUBCASE 2
  LABEL = BUCKLING CASE
  METHOD = 1
BEGIN BULK
$ ***************************************************************************
$   Written by : Femap
$   Version    : 2023.1.0
$   Translator : Simcenter Nastran
$   From Model :
$   Date       : Fri May 19 14:25:00 2023
$   Output To  : C:\Users\trbrooks\AppData\Local\Temp\2\
$ ***************************************************************************
$
PARAM,PRGPST,NO
PARAM,POST,-1
PARAM,OGEOM,NO
PARAM,AUTOSPC,YES
PARAM,GRDPNT,0
EIGRL          1           3000.       1       0                     MAX
CORD2C         1       0      0.      0.      0.      0.      0.      1.+FEMAPC1
+FEMAPC1      1.      0.      1.
CORD2S         2       0      0.      0.      0.      0.      0.      1.+FEMAPC2
+FEMAPC2      1.      0.      1.
$ Femap Load Set 1 : Untitled
FORCE          1      15       0      1.      0.  -5000.      0.
FORCE          1      16       0      1.      0. -10000.      0.
FORCE          1      17       0      1.      0. -10000.      0.
FORCE          1      18       0      1.      0. -10000.      0.
FORCE          1      19       0      1.      0. -10000.      0.
FORCE          1      20       0      1.      0. -10000.      0.
FORCE          1      21       0      1.      0. -10000.      0.
FORCE          1      22       0      1.      0. -10000.      0.
FORCE          1      23       0      1.      0.  -5000.      0.
FORCE          1       1       0      1.      0.   5000.      0.
FORCE          1       2       0      1.      0.  10000.      0.
FORCE          1       3       0      1.      0.  10000.      0.
FORCE          1       4       0      1.      0.  10000.      0.
FORCE          1       5       0      1.      0.  10000.      0.
FORCE          1       6       0      1.      0.  10000.      0.
FORCE          1       7       0      1.      0.  10000.      0.
FORCE          1       8       0      1.      0.  10000.      0.
FORCE          1       9       0      1.      0.   5000.      0.
$ Femap Constraint Set 1 : Untitled
SPC1           1  123456       1
SPC1           1     236       2
SPC1           1     236       3
SPC1           1     236       4
SPC1           1     236       5
SPC1           1     236       6
SPC1           1     236       7
SPC1           1     236       8
SPC1           1     236       9
SPC1           1      36      10
SPC1           1      36      11
SPC1           1      36      12
SPC1           1      36      13
SPC1           1      36      14
SPC1           1      36      15
SPC1           1      36      16
SPC1           1      36      17
SPC1           1      36      18
SPC1           1      36      19
SPC1           1      36      20
$ ... 8 like lines cut
$ Femap Property 1 : PLATE Property
PSHELL         1       1     .02       1               1              0.
$ Femap Material 1 : ISOTROPIC Material
MAT1           1 2.05+11              .3      0.      0.      0.
GRID           1       0      0.      0.      0.       0
GRID           2       0      .5      0.      0.       0
GRID           3       0      1.      0.      0.       0
GRID           4       0     1.5      0.      0.       0
GRID           5       0      2.      0.      0.       0
GRID           6       0     2.5      0.      0.       0
GRID           7       0      3.      0.      0.       0
GRID           8       0     3.5      0.      0.       0
GRID           9       0      4.      0.      0.       0
GRID          10       0      4.      .5      0.       0
GRID          11       0      4.      1.      0.       0
GRID          12       0      4.     1.5      0.       0
GRID          13       0      4.      2.      0.       0
GRID          14       0      4.     2.5      0.       0
GRID          15       0      4.      3.      0.       0
GRID          16       0     3.5      3.      0.       0
GRID          17       0      3.      3.      0.       0
GRID          18       0     2.5      3.      0.       0
GRID          19       0      2.      3.      0.       0
GRID          20       0     1.5      3.      0.       0
$ ... 43 like lines cut
CQUAD4         1       1       1       2      29      28
CQUAD4         2       1       2       3      30      29
CQUAD4         3       1       3       4      31      30
CQUAD4         4       1       4       5      32      31
CQUAD4         5       1       5       6      33      32
CQUAD4         6       1       6       7      34      33
CQUAD4         7       1       7       8      35      34
CQUAD4         8       1       8       9      10      35
CQUAD4         9       1      28      29      36      27
CQUAD4        10       1      29      30      37      36
CQUAD4        11       1      30      31      38      37
CQUAD4        12       1      31      32      39      38
CQUAD4        13       1      32      33      40      39
CQUAD4        14       1      33      34      41      40
CQUAD4        15       1      34      35      42      41
CQUAD4        16       1      35      10      11      42
CQUAD4        17       1      27      36      43      26
CQUAD4        18       1      36      37      44      43
CQUAD4        19       1      37      38      45      44
CQUAD4        20       1      38      39      46      45
$ ... 28 like lines cut
ENDDATA
