$pyNastran: version=msc
$pyNastran: punch=False
$pyNastran: encoding=utf-8
$pyNastran: nnodes=63
$pyNastran: nelements=96
INIT MASTER(S)
NASTRAN SYSTEM(442)=-1,SYSTEM(319)=1
$EXECUTIVE CONTROL DECK
ID FEMAP,FEMAP
SOL 105
CEND
$CASE CONTROL DECK
DISPLACEMENT(PLOT) = ALL
ECHO = NONE
SPC = 1
SPCFORCES(PLOT) = ALL
STRESS(PLOT,CORNER) = ALL
TITLE = Simcenter Nastran Buckling Analysis Set
SUBCASE 1
    LOAD = 1
SUBCASE 2
    LABEL = BUCKLING CASE
    METHOD = 1
BEGIN BULK
$PARAMS
PARAM    AUTOSPC     YES
PARAM     GRDPNT       0
PARAM      OGEOM      NO
PARAM       POST      -1
$ ***************************************************************************
$   Written by : Femap
$   Version    : 2023.1.0
$   Translator : Simcenter Nastran
$   From Model :
$   Date       : Fri May 19 14:25:00 2023
$   Output To  : C:\Users\trbrooks\AppData\Local\Temp\2\
$ ***************************************************************************
PARAM     PRGPST      NO
$NODES
GRID           1              0.      0.      0.
GRID           2              .5      0.      0.
GRID           3              1.      0.      0.
GRID           4             1.5      0.      0.
GRID           5              2.      0.      0.
GRID           6             2.5      0.      0.
GRID           7              3.      0.      0.
GRID           8             3.5      0.      0.
GRID           9              4.      0.      0.
GRID          10              4.      .5      0.
GRID          11              4.      1.      0.
GRID          12              4.     1.5      0.
GRID          13              4.      2.      0.
GRID          14              4.     2.5      0.
GRID          15              4.      3.      0.
GRID          16             3.5      3.      0.
GRID          17              3.      3.      0.
GRID          18             2.5      3.      0.
GRID          19              2.      3.      0.
GRID          20             1.5      3.      0.
$ ... 43 like lines cut
$ELEMENTS
CTRIA3        49       1       1       2      29
CTRIA3        50       1       1      29      28
CTRIA3        51       1       2       3      30
CTRIA3        52       1       2      30      29
CTRIA3        53       1       3       4      31
CTRIA3        54       1       3      31      30
CTRIA3        55       1       4       5      32
CTRIA3        56       1       4      32      31
CTRIA3        57       1       5       6      33
CTRIA3        58       1       5      33      32
CTRIA3        59       1       6       7      34
CTRIA3        60       1       6      34      33
CTRIA3        61       1       7       8      35
CTRIA3        62       1       7      35      34
CTRIA3        63       1       8       9      10
CTRIA3        64       1       8      10      35
CTRIA3        65       1      28      29      36
CTRIA3        66       1      28      36      27
CTRIA3        67       1      29      30      37
CTRIA3        68       1      29      37      36
$ ... 76 like lines cut
$PROPERTIES
$ Femap Property 1 : PLATE Property
PSHELL         1       1     .02       1               1
$MATERIALS
$ Femap Material 1 : ISOTROPIC Material
MAT1           1 2.05+11              .3
$LOADS
$ Femap Load Set 1 : Untitled
FORCE          1      15              1.      0.  -5000.      0.
FORCE          1      16              1.      0. -10000.      0.
FORCE          1      17              1.      0. -10000.      0.
FORCE          1      18              1.      0. -10000.      0.
FORCE          1      19              1.      0. -10000.      0.
FORCE          1      20              1.      0. -10000.      0.
FORCE          1      21              1.      0. -10000.      0.
FORCE          1      22              1.      0. -10000.      0.
FORCE          1      23              1.      0.  -5000.      0.
FORCE          1       1              1.      0.   5000.      0.
FORCE          1       2              1.      0.  10000.      0.
FORCE          1       3              1.      0.  10000.      0.
FORCE          1       4              1.      0.  10000.      0.
FORCE          1       5              1.      0.  10000.      0.
FORCE          1       6              1.      0.  10000.      0.
FORCE          1       7              1.      0.  10000.      0.
FORCE          1       8              1.      0.  10000.      0.
FORCE          1       9              1.      0.   5000.      0.
$DYNAMIC
EIGRL          1           3000.       1                             MAX
$SPCs
$ Femap Constraint Set 1 : Untitled
SPC1           1  123456       1
SPC1           1     236       2
SPC1           1     236       3
SPC1           1     236       4
SPC1           1     236       5
SPC1           1     236       6
SPC1           1     236       7
SPC1           1     236       8
SPC1           1     236       9
SPC1           1      36      10
SPC1           1      36      11
SPC1           1      36      12
SPC1           1      36      13
SPC1           1      36      14
SPC1           1      36      15
SPC1           1      36      16
SPC1           1      36      17
SPC1           1      36      18
SPC1           1      36      19
SPC1           1      36      20
$ ... 8 like lines cut
$COORDS
CORD2C         1              0.      0.      0.      0.      0.      1.
              1.      0.      1.
CORD2S         2              0.      0.      0.      0.      0.      1.
              1.      0.      1.
ENDDATA
