INIT MASTER(S)
NASTRAN SYSTEM(442)=-1,SYSTEM(319)=1
ID FEMAP,FEMAP
SOL SESTATIC
CEND
  TITLE = Simcenter Nastran Static Analysis Set
  ECHO = NONE
  DISPLACEMENT(PLOT) = ALL
  SPCFORCE(PLOT) = ALL
  OLOAD(PLOT) = ALL
  FORCE(PLOT,CORNER) = ALL
  STRESS(PLOT,CORNER) = ALL
SUBCASE 1
  SUBTITLE = Clamp_+X
  SPC = 1
  LOAD = 1
SUBCASE 2
  SUBTITLE = Clamp_+Y
  SPC = 1
  LOAD = 2
SUBCASE 3
  SUBTITLE = Clamp_-X
  SPC = 1
  LOAD = 3
SUBCASE 4
  SUBTITLE = Clamp_-Y
  SPC = 1
  LOAD = 4
SUBCASE 5
  SUBTITLE = Clamp_+Z
  SPC = 1
  LOAD = 5
SUBCASE 6
  SUBTITLE = Clamp_-Z
  SPC = 1
  LOAD = 6
BEGIN BULK
$ ***************************************************************************
$   Written by : Femap
$   Version    : 2021.1.0
$   Translator : Simcenter Nastran
$   From Model :
$   Date       : Thu Apr 13 10:18:32 2023
$   Output To  : C:\Users\trbrooks\AppData\Local\Temp\2\
$ ***************************************************************************
$
PARAM,PRGPST,YES
PARAM,POST,-1
PARAM,OGEOM,NO
PARAM,AUTOSPC,YES
PARAM,K6ROT,100.
PARAM,GRDPNT,0
CORD2C         1       0      0.      0.      0.      0.      0.      1.+FEMAPC1
+FEMAPC1      1.      0.      1.
CORD2S         2       0      0.      0.      0.      0.      0.      1.+FEMAPC2
+FEMAPC2      1.      0.      1.
$ Femap Load Set 1 : Forces
PLOAD4         1       3-100000.                               2       9
PLOAD4         1       4-100000.                               3      10
$ Femap Load Set 2 : +Y
PLOAD4         2       4-100000.                               4      11
$ Femap Load Set 3 : -X
PLOAD4         3       3-100000.                               6       7
PLOAD4         3       4-100000.                               5      12
$ Femap Load Set 4 : -Y
PLOAD4         4       3-100000.                               1       8
$ Femap Load Set 5 : +Z
PLOAD4         5       3-100000.                               7       9
PLOAD4         5       4-100000.                              12      10
$ Femap Load Set 6 : -Z
PLOAD4         6       3-100000.                               1       3
PLOAD4         6       4-100000.                               6       4
$ Femap Constraint Set 1 : Clamp
SPC1           1  123456       1
SPC1           1  123456       5
SPC1           1  123456       6
SPC1           1  123456       7
SPC1           1  123456      11
SPC1           1  123456      12
$ Femap Property 1 : Dummy
PSOLID         1       1       0
$ Femap Material 1 : Aluminum
MAT1           1    7.+5              .3   2.700      0.      0.        +
+          2.7+3
GRID           1       0      0.      0.      0.       0
GRID           2       0      1.      0.      0.       0
GRID           3       0      1.      1.      0.       0
GRID           4       0      1.      2.      0.       0
GRID           5       0      0.      2.      0.       0
GRID           6       0      0.      1.      0.       0
GRID           7       0      0.      0.      1.       0
GRID           8       0      1.      0.      1.       0
GRID           9       0      1.      1.      1.       0
GRID          10       0      1.      2.      1.       0
GRID          11       0      0.      2.      1.       0
GRID          12       0      0.      1.      1.       0
CHEXA          3       1       1       2       3       6       7       8+
+              9      12
CHEXA          4       1       6       3       4       5      12       9+
+             10      11
ENDDATA