INIT MASTER(S)
NASTRAN SYSTEM(442)=-1,SYSTEM(319)=1
ID FEMAP,FEMAP
SOL SESTATIC
CEND
  TITLE = Simcenter Nastran Static Analysis Set
  ECHO = NONE
  DISPLACEMENT(PLOT) = ALL
  SPCFORCE(PLOT) = ALL
  OLOAD(PLOT) = ALL
  FORCE(PLOT,CORNER) = ALL
  STRESS(PLOT,CORNER) = ALL
  SPC = 1
BEGIN BULK
$ ***************************************************************************
$   Written by : Femap
$   Version    : 2506.0
$   Translator : Simcenter Nastran
$   From Model : 
$   Date       : Fri Oct 17 13:45:54 2025
$   Output To  : C:\Users\tbrooks\AppData\Local\Temp\
$ ***************************************************************************
$
PARAM,PRGPST,NO
PARAM,POST,-1
PARAM,OGEOM,NO
PARAM,AUTOSPC,YES
PARAM,K6ROT,100.
PARAM,GRDPNT,0
CORD2C         1       0      0.      0.      0.      0.      0.      1.+FEMAPC1
+FEMAPC1      1.      0.      1.        
CORD2S         2       0      0.      0.      0.      0.      0.      1.+FEMAPC2
+FEMAPC2      1.      0.      1.        
$ Femap Constraint Set 1 : Untitled
SPC1           1  123456       1
SPC1           1  123456       8
$ Femap Property 1 : Section 1
PBAR           1       1     10.      0.      0.      0.      0.        +       
+             0.      0.      0.      0.      0.      0.      0.      0.+       
+                             0.
$ Femap Property 2 : Section 2
PBAR           2       1     10.      0.      0.      0.      0.        +       
+             0.      0.      0.      0.      0.      0.      0.      0.+       
+                             0.
$ Femap Property 3 : Section 3
PBAR           3       1     10.      0.      0.      0.      0.        +       
+             0.      0.      0.      0.      0.      0.      0.      0.+       
+                             0.
$ Femap Material 1 : Aluminum
MAT1           1   7.+10              .3   2700.      0.      0.        +       
+                          2.8+8
GRID           1       0      0.      0.      0.       0
GRID           2       0.3333333      0.      0.       0
GRID           3       0.6666667      0.      0.       0
GRID           4       0      1.      0.      0.       0
GRID           5       0      2.      0.      0.       0
GRID           6       02.333333      0.      0.       0
GRID           7       02.666667      0.      0.       0
GRID           8       0      3.      0.      0.       0
CBAR           1       1       1       2      0.      1.      0.
CBAR           2       2       2       3      0.      1.      0.
CBAR           3       3       3       4      0.      1.      0.
CBAR           4       3       5       6      0.      1.      0.
CBAR           5       2       6       7      0.      1.      0.
CBAR           6       1       7       8      0.      1.      0.
ENDDATA fcd1d3ac
