$pyNastran: version=msc
$pyNastran: punch=False
$pyNastran: encoding=utf-8
$pyNastran: nnodes=229
$pyNastran: nelements=144
INIT MASTER(S)
NASTRAN SYSTEM(319)=1
$EXECUTIVE CONTROL DECK
ID unit,FEMAP
SOL 101
CEND
$CASE CONTROL DECK
DISPLACEMENT(PRINT) = ALL
ECHO = NONE
ESE(PRINT) = ALL
OLOAD(PRINT) = ALL
SPCFORCES(PRINT) = ALL
STRAIN(PRINT,FIBER) = ALL
STRESS(PRINT) = ALL
SUBTITLE = Linear Statics
TITLE = Linear Statics
BEGIN BULK
$PARAMS
PARAM    AUTOSPC     YES
PARAM     GRDPNT       0
PARAM      OGEOM      NO
PARAM       POST      -1
$ ***************************************************************************
$   Written by : Femap
$   Version    : 2021.1.0
$   Translator : MSC Nastran
$   From Model : C:\Users\mleader\Desktop\unit_plate_coarse.modfem
$   Date       : Mon Mar  7 18:02:40 2022
$   Output To  : C:\Users\mleader\Desktop\
$ ***************************************************************************
PARAM     PRGPST     YES
$NODES
GRID           1              0.      0.      0.
GRID           2        .1666667      0.      0.
GRID           3        .3333333      0.      0.
GRID           4              .5      0.      0.
GRID           5        .6666667      0.      0.
GRID           6        .8333333      0.      0.
GRID           7              1.      0.      0.
GRID           8              1..1666667      0.
GRID           9              1..3333333      0.
GRID          10              1.      .5      0.
GRID          11              1..6666667      0.
GRID          12              1..8333333      0.
GRID          13              1.      1.      0.
GRID          14        .8333333      1.      0.
GRID          15        .6666667      1.      0.
GRID          16              .5      1.      0.
GRID          17        .3333333      1.      0.
GRID          18        .1666667      1.      0.
GRID          19              0.      1.      0.
GRID          20              0..8333333      0.
$ ... 209 like lines cut
$ELEMENTS
CQUAD4         1       1       1      50      54      53
CQUAD4         2       1       2      55      59      58
CQUAD4         3       1       3      60      64      63
CQUAD4         4       1       4      65      69      68
CQUAD4         5       1       5      70      74      73
CQUAD4         6       1       6      75      79      78
CQUAD4         7       1      24      80      84      83
CQUAD4         8       1      25      85      89      88
CQUAD4         9       1      26      90      94      93
CQUAD4        10       1      27      95      99      98
CQUAD4        11       1      28     100     104     103
CQUAD4        12       1      29     105     109     108
CQUAD4        13       1      23     110     114     113
CQUAD4        14       1      30     115     119     118
CQUAD4        15       1      31     120     124     123
CQUAD4        16       1      32     125     129     128
CQUAD4        17       1      33     130     134     133
CQUAD4        18       1      34     135     139     138
CQUAD4        19       1      22     140     144     143
CQUAD4        20       1      35     145     149     148
$ ... 124 like lines cut
$PROPERTIES
$ Femap Property 1 : dummy
PSHELL         1       1      1.       1               1
$MATERIALS
$ Femap Material 1 : dummy
MAT1           1      1.              0.      1.
$SPCs
SPC            1       1       1    100.
SPC            1      19       1    100.
SPC            1      20       1    100.
SPC            1      21       1    100.
SPC            1      22       1    100.
SPC            1      23       1    100.
SPC            1      24       1    100.
SPC            1      53       1    100.
SPC            1      83       1    100.
SPC            1     113       1    100.
SPC            1     143       1    100.
SPC            1     173       1    100.
SPC            1     203       1    100.
SPC            1       7       1    200.
SPC            1       8       1    200.
SPC            1       9       1    200.
SPC            1      10       1    200.
SPC            1      11       1    200.
SPC            1      12       1    200.
SPC            1      13       1    200.
$ ... 6 like lines cut
$COORDS
CORD2C         1              0.      0.      0.      0.      0.      1.
              1.      0.      1.
CORD2S         2              0.      0.      0.      0.      0.      1.
              1.      0.      1.
ENDDATA
